Using: /cad/avanti/98.2/sol4/hspice
******  Star-HSPICE  --    98.2  (980711)  03:23:17  01/09/2000  solaris      
 Copyright (C) 1985-1997 by Avant! Corporation.                               
 Unpublished-rights reserved under US copyright laws.
 This program is protected by law and is subject to the 
 terms and conditions of the license agreement found in:
   /cad/avanti/98.2/license.txt
 Use of this program is your acceptance to be bound by this 
 license agreement. Star-HSPICE is the trademark of 
 Avant! Corporation.
 Input File: nand2_4x.in1.out.ld_0.sp                                          
lic:  
lic: FLEXlm:v5.12  USER:ryu  HOSTNAME:encina  HOSTID:80a7396e  PID:6952 
lic: Using FLEXlm license file: 
lic: /cad/avanti/98.2/license.dat 
lic: Checkout hspice;  Encryption code: 5C3400918DF1E79DC274 
lic: License/Maintenance for hspice will expire on 26-mar-2000/2000.100 
lic: 1(in_use)/1 FLOATING license(s) on SERVER wireless 
lic:   
Init: read install configuration file: /cad/avanti/98.2/meta.cfg
Init: hspice initialization file: /cad/avanti/98.2/hspice.ini
******  
*      $id$                                                                   
                                                                              
******  
* reading file:  /cad/avanti/98.2/hspice.ini
 
*      do not edit.  this file generated automagically.
*      created: sun jan  9  3:23:17 us/pacific 2000
*      user: ryu
 
*      char:   load delay characterization
*      type:   'inverting'
*      input:  'in1'
*      output: 'out'
 
*--- setup ---------------------------------------------------
.include '/people/ryu/src/autochar-1.5.5/tech/tsmc35/include/ttlh.sp'
*      $id: ttlh,v 1.4 1999/01/19 08:15:10 ryu exp ryu $
 
*      copyright (c) 1999 robert k. yu
*      email: robert@yu.org
 
*      this file is part of autochar.
 
*      autochar is free software; you can redistribute it and/or modify
*      it under the terms of the gnu general public license as published by
*      the free software foundation; either version 2, or (at your option)
*      any later version.
 
*      autochar is distributed in the hope that it will be useful,
*      but without any warranty; without even the implied warranty of
*      merchantability or fitness for a particular purpose.  see the
*      gnu general public license for more details.
 
*      you should have received a copy of the gnu general public license
*      along with autochar; see the file copying.  if not, write to the
*      free software foundation, inc., 59 temple place - suite 330,
*      boston, ma 02111-1307, usa.
 
 
*      sample hspice include file to read
*      in hspice models, library, and conditions.
 
*      ttlh :=
*          t ypical n
*          t ypical p
*          l ow vdd
*          h igh temperature
 
.lib     /people/ryu/src/autochar-1.5.5/tech/tsmc35/lib/define.sp defaults
.param
+      trise   = 200ps
+      tfall   = 200ps
+      period  = 6ns
+      pwidth  = 3ns
 
.options
+      scale   = 1.0e-6
 
.endl
.lib     /people/ryu/src/autochar-1.5.5/tech/tsmc35/lib/define.sp low_voltage
.param
+      vhigh = '3.3*0.9'
+      vlow = 0
+      vmidpoint = '(vhigh+vlow)/2'
.endl
.lib    /people/ryu/src/autochar-1.5.5/tech/tsmc35/lib/define.sp high_temp
.temp 100
.endl
.lib     /people/ryu/src/autochar-1.5.5/tech/tsmc35/lib/define.sp supplies
vvdd vdd 0 dc vhigh
vgnd gnd 0 dc 0
.global vdd gnd
.endl
 
.include /people/ryu/src/autochar-1.5.5/tech/tsmc35/lib/models.sp
*  n88y spice bsim3 version 3.1 (hspice level 49) parameters
 
* date: oct 30/98
* lot: n88y                  waf: 11
* temperature_parameters=default
.model nch nmos (                                level   = 49
+version = 3.1            tnom    = 27             tox     = 7.6e-9
+xj      = 1.5e-7         nch     = 1.7e17         vth0    = 0.4964448
+k1      = 0.5307769      k2      = 0.0199705      k3      = 0.2963637
+k3b     = 0.2012165      w0      = 2.836319e-6    nlx     = 2.894802e-7
+dvt0w   = 0              dvt1w   = 5.3e6          dvt2w   = -0.032
+dvt0    = 0.112017       dvt1    = 0.2453972      dvt2    = -0.171915
+u0      = 444.9381976    ua      = 2.921284e-10   ub      = 1.773281e-18
+uc      = 7.067896e-11   vsat    = 1.130785e5     a0      = 1.1356246
+ags     = 0.2810374      b0      = 2.844393e-7    b1      = 5e-6
+keta    = -7.8181e-3     a1      = 0              a2      = 1
+rdsw    = 925.2701982    prwg    = -1e-3          prwb    = -1e-3
+wr      = 1              wint    = 7.186965e-8    lint    = 1.735515e-9
+xl      = 0              xw      = 0              dwg     = -1.712973e-8
+dwb     = 5.851691e-9    voff    = -0.132935      nfactor = 0.5710974
+cit     = 0              cdsc    = 8.607229e-4    cdscd   = 0
+cdscb   = 0              eta0    = 2.128321e-3    etab    = 0
+dsub    = 0.0257957      pclm    = 0.6766314      pdiblc1 = 1
+pdiblc2 = 1.787424e-3    pdiblcb = 0              drout   = 0.7873539
+pscbe1  = 6.973485e9     pscbe2  = 1.46235e-7     pvag    = 0.05
+delta   = 0.01           mobmod  = 1              prt     = 0
+ute     = -1.5           kt1     = -0.11          kt1l    = 0
+kt2     = 0.022          ua1     = 4.31e-9        ub1     = -7.61e-18
+uc1     = -5.6e-11       at      = 3.3e4          wl      = 0
+wln     = 1              ww      = 0              wwn     = 1
+wwl     = 0              ll      = 0              lln     = 1
+lw      = 0              lwn     = 1              lwl     = 0
+capmod  = 2              cgdo    = 1.96e-10       cgso    = 1.96e-10
+cgbo    = 0              cj      = 9.276962e-4    pb      = 0.8157962
+mj      = 0.3557696      cjsw    = 3.181055e-10   pbsw    = 0.6869149
+mjsw    = 0.1            pvth0   = -0.0252481     prdsw   = -96.4502805
+pk2     = -4.805372e-3   wketa   = -7.643187e-4   lketa   = -0.0129496      )
*
.model pch pmos (                                level   = 49
+version = 3.1            tnom    = 27             tox     = 7.6e-9
+xj      = 1.5e-7         nch     = 1.7e17         vth0    = -0.6636594
+k1      = 0.4564781      k2      = -0.019447      k3      = 39.382919
+k3b     = -2.8930965     w0      = 2.655585e-6    nlx     = 1.51028e-7
+dvt0w   = 0              dvt1w   = 5.3e6          dvt2w   = -0.032
+dvt0    = 1.1744581      dvt1    = 0.7631128      dvt2    = -0.1035171
+u0      = 151.3305606    ua      = 2.061211e-10   ub      = 1.823477e-18
+uc      = -8.97321e-12   vsat    = 9.915604e4     a0      = 1.1210053
+ags     = 0.3961954      b0      = 6.493139e-7    b1      = 4.273215e-6
+keta    = -9.27e-3       a1      = 0              a2      = 1
+rdsw    = 2.30725e3      prwg    = -1e-3          prwb    = 0
+wr      = 1              wint    = 5.962233e-8    lint    = 4.30928e-9
+xl      = 0              xw      = 0              dwg     = -1.596201e-8
+dwb     = 1.378919e-8    voff    = -0.15          nfactor = 2
+cit     = 0              cdsc    = 6.593084e-4    cdscd   = 0
+cdscb   = 0              eta0    = 0.0286461      etab    = 0
+dsub    = 0.2436027      pclm    = 4.3597508      pdiblc1 = 7.447024e-4
+pdiblc2 = 4.256073e-3    pdiblcb = 0              drout   = 0.0120292
+pscbe1  = 1.347622e10    pscbe2  = 5e-9           pvag    = 3.669793
+delta   = 0.01           mobmod  = 1              prt     = 0
+ute     = -1.5           kt1     = -0.11          kt1l    = 0
+kt2     = 0.022          ua1     = 4.31e-9        ub1     = -7.61e-18
+uc1     = -5.6e-11       at      = 3.3e4          wl      = 0
+wln     = 1              ww      = 0              wwn     = 1
+wwl     = 0              ll      = 0              lln     = 1
+lw      = 0              lwn     = 1              lwl     = 0
+capmod  = 2              cgdo    = 2.307e-10      cgso    = 2.307e-10
+cgbo    = 0              cj      = 1.420282e-3    pb      = 0.99
+mj      = 0.5490877      cjsw    = 4.773605e-10   pbsw    = 0.99
+mjsw    = 0.1997417      pvth0   = 6.58707e-3     prdsw   = -93.5582228
+pk2     = 1.011593e-3    wketa   = -0.0101398     lketa   = 6.027967e-3     )
*
.include 'nand2_4x.sp'
 
.subckt nand2_4x in0 in1 out
 
* begin port declarations
* port input in0
* port input in1
* port output out
* end port declarations
 
mn0 out in0 n0 gnd nch w=20 l=0.35
mn1 n0 in1 gnd gnd nch w=20 l=0.35
mp2 out in0 vdd vdd pch w=20 l=0.35
mp3 out in1 vdd vdd pch w=20 l=0.35
 
c1 in0 gnd 10e-15
c2 in1 gnd 10e-15
c3 out gnd 20e-15
 
.ends
.include /people/ryu/src/autochar-1.5.5/tech/tsmc35/lib/autochar.sp
*      $id: autochar.sp,v 1.1 1999/01/19 09:04:21 ryu exp $
 
*      copyright (c) 1999 robert k. yu
*      email: robert@yu.org
 
*      this file is part of autochar.
 
*      autochar is free software; you can redistribute it and/or modify
*      it under the terms of the gnu general public license as published by
*      the free software foundation; either version 2, or (at your option)
*      any later version.
 
*      autochar is distributed in the hope that it will be useful,
*      but without any warranty; without even the implied warranty of
*      merchantability or fitness for a particular purpose.  see the
*      gnu general public license for more details.
 
*      you should have received a copy of the gnu general public license
*      along with autochar; see the file copying.  if not, write to the
*      free software foundation, inc., 59 temple place - suite 330,
*      boston, ma 02111-1307, usa.
 
*      simple inverter
 
.subckt inverter in out
+      nl=0.6
+      nw=5.0
+      pl=0.6
+      pw=10.0
mn0 out in 0   0   nch l=nl w=nw
mp1 out in vdd vdd pch l=pl w=pw
.ends
 
 
*      simple buffer
.subckt buffer in out
+      nl=0.6
+      nw=5.0
+      pl=0.6
+      pw=10.0
+      taper=3
mn0 in1 in 0   0   nch l=nl w=nw
mp1 in1 in vdd vdd pch l=pl w=pw
mn2 out in1 0  0   nch l=nl w='taper*nw'
mp3 out in1 vdd        vdd pch l=pl w='taper*pw'
.ends
 
 
*      simple buffer with infinite drive
.subckt ebuffer in out
+      nl=0.6
+      nw=5.0
+      pl=0.6
+      pw=10.0
+      taper=3
mn0 in1 in 0   0   nch l=nl w=nw
mp1 in1 in vdd vdd pch l=pl w=pw
mn2 in2 in1 0  0   nch l=nl w='taper*nw'
mp3 in2 in1 vdd        vdd pch l=pl w='taper*pw'
* fo=3 load
xload1 in2 nc1 buffer m=3
* infinite drive
ebuf out 0 in2 0 +1
.ends
 
 
*      resistive 'buffer'
.subckt resbuffer in out
+      r=1k
rbuf in out r
.ends
 
 
*      short 'buffer'
.subckt shortbuf in out
vshort in out 0
.ends
 
 
*      infinite drive buffer with slew rate parameter using rc
*      input must be an ideal pulse.
*      to control the edge.
.subckt slewbuffer in out
+      rslew=1k
+      slew=slewrate           $ default from global param slewrate
+      start=slew_start        $ default from global param slew_start
+      end=slew_end            $ default from global param slew_end
.param cslew='abs(slew/(rslew*(log(start)-log(end))))'
rbuf in out1 rslew
cbuf out1 0 cslew
* infinite drive
ebuf out 0 out1 0 +1
.ends
 
.options
+      opts
+      list
+      nopage
+      method  = gear
+      lvltim  = 2
+      relq    = 2.0e-3
+      acct    = 1
+      post    = 1
.param cload = '2.5e-15'
.param slewrate = '4.00002e-11'
.param slew_start = '0.1'
.param slew_end = '0.9'
.param tau = 'slewrate/abs(log(slew_start)-log(slew_end))'
 
*--- inputs --------------------------------------------------
vinr vinr 0 exp (
+     '0'
+      'vhigh'
+      '1ns'
+      'tau'
+      '1ns+1000*tau'
+      'tau')
vinf vinf 0 exp (
+      'vhigh'
+     '0'
+      '1ns'
+      'tau'
+      '1ns+1000*tau'
+      'tau')
 
*--- test circuit --------------------------------------------
vshortr vinr inputr dc 0
xdut0
+      vdd     $ in0:i
+      inputr  $ in1:i
+      outputf $ out:o
+      nand2_4x
vshortf vinf inputf dc 0
xdut1
+      vdd     $ in0:i
+      inputf  $ in1:i
+      outputr $ out:o
+      nand2_4x
 
*--- loads ---------------------------------------------------
cloadr outputr 0 cload
cloadf outputf 0 cload
 
*--- measure -------------------------------------------------
.option autostop
* prop delay measurements:
.measure tran tplh trig= v(inputf) val='0+(1-0.5)*vhigh' fall=1
+      targ=v(outputr) val='0+0.5*vhigh' rise=1
.measure tran tphl trig= v(inputr) val='0+0.5*vhigh' rise=1
+      targ=v(outputf) val='0+(1-0.5)*vhigh' fall=1
 
* output rise and fall time measurements:
.measure tran risetime trig= v(outputr) val='0+0.1*vhigh' rise=1
+      targ=v(outputr) val='0+0.9*vhigh' rise=1
.measure tran falltime trig= v(outputf) val='0+(1-0.1)*vhigh' fall=1
+      targ=v(outputf) val='0+(1-0.9)*vhigh' fall=1
 
* input rise and fall time measurements:
.measure tran inputrise trig= v(inputr) val='0+0.1*vhigh' rise=1
+      targ=v(inputr) val='0+0.9*vhigh' rise=1
.measure tran inputfall trig= v(inputf) val='0+(1-0.1)*vhigh' fall=1
+      targ=v(inputf) val='0+(1-0.9)*vhigh' fall=1
 
*--- transient -----------------------------------------------
.trans 5ps '2*period'
 
*--- alter ---------------------------------------------------
.alter
scientific notation:
f=10**-15  p=10**-12  n=10**-9  u=10**-6  m=10**-3
k=10**3    x=10**6    g=10**9 
******  Star-HSPICE  --    98.2  (980711)  03:23:17  01/09/2000  solaris      
******  
*      $id$                                                                   
 ******  circuit name directory                                               
******  
circuit number to circuit name directory
number  circuitname                   definition        multiplier
    0 main circuit
    1 xdut0.                          nand2_4x           1.00 
    2 xdut1.                          nand2_4x           1.00 


circuit parameter definitions
 parameter          =  value 

    0:trise                                                   = 200.0000p      
    0:tfall                                                   = 200.0000p      
    0:period                                                  =   6.0000n      
    0:pwidth                                                  =   3.0000n      
    0:vhigh                                                   =   2.9700       
    0:vlow                                                    =   0.           
    0:vmidpoint                                               =   1.4850       
    0:cload                                                   =   2.5000f      
    0:slewrate                                                =  40.0002p      
    0:slew_start                                              = 100.0000m      
    0:slew_end                                                = 900.0000m      
    0:tau                                                     =  18.2049p      
    0:tplh                                                    =   0.           
    0:tphl                                                    =   0.           
    0:risetime                                                =   0.           
    0:falltime                                                =   0.           
    0:inputrise                                               =   0.           
    0:inputfall                                               =   0.           




constants  - tnom         kt           vt           gapsi        ni
           298.1500     4.116e-21     25.6918m      1.1156     1.256e+16  
******  Star-HSPICE  --    98.2  (980711)  03:23:17  01/09/2000  solaris      
******  
*      $id$                                                                   
 ******  mos   model parameters           tnom=  25.000 temp=  25.000         
******  
***************************************************************************
***        model parameters  model name:   0:nch      model type:nmos   ***
***************************************************************************

  *** general parameters ***
   deriv=   0.           

  ***  level 49  model parameters  ***

     hspver=       98.2               level=         49         
    version=        3.1            paramchk=          0         
     apwarn=          1             binUnit=          1         
     capMod=          2               xpart=          1         
     mobMod=          1              nqsMod=          0         
        elm=          5            sfvtflag=          0         
        tox=    7.6e-09 meter            xj=    1.5e-07 meter   
    binflag=          0                lmin=          0 meter   
       lmax=          0 meter          wmin=          0 meter   
       wmax=          0 meter          lref=          0 meter   
       wref=          0 meter          lint=1.73552e-09 meter   
       wint=7.18696e-08 meter         lmult=          1         
      wmult=          1                  ll=          0         
        lln=          1                  lw=          0         
        lwn=          1                 lwl=          0         
         wl=          0                 wln=          1         
         ww=          0                 wwn=          1         
        wwl=          0                 dwg=-1.71297e-08 m/V     
        dwb=5.85169e-09 m/V^1/2          a0=    1.13562         
        ags=   0.281037 V^-1             b0=2.84439e-07 meter   
         b1=      5e-06 meter          keta= -0.0078181 V^-1    
       voff=  -0.132935 V             ngate=          0 cm^-3   
        vbx=          0 V               vbm=         -3 V       
         xt=   1.55e-07 meter          vth0=   0.496445 V       
        nch=    1.7e+17 cm^-3          nsub=      6e+16 cm^-3   
        nlx= 2.8948e-07 meter        gamma1=          0 V^-1/2  
     gamma2=          0 V^-1/2           k1=   0.530777 V^1/2   
         k2=  0.0199705                  k3=   0.296364         
        k3b=   0.201216 V^-1             w0=2.83632e-06 meter   
       dvt0=   0.112017                dvt1=   0.245397         
       dvt2=  -0.171915 V^-1          dvt0w=          0 meter^-1
      dvt1w=    5.3e+06 meter^-1      dvt2w=     -0.032 V^-1    
       dsub=  0.0257957                eta0= 0.00212832         
       etab=          0 V^-1             u0=    444.938 cm^2/V/sec
         ua=2.92128e-10 m/V              ub=1.77328e-18 (m/V)^2 
         uc= 7.0679e-11 V^-1           vsat=     113078 m/sec   
         a1=          0 v^-1             a2=          1         
      delta=       0.01 V              rdsw=     925.27 ohm-um  
       prwg=     -0.001 V^-1           prwb=     -0.001 V^-1/2  
         wr=          1                pclm=   0.676631         
    pdiblc1=          1             pdiblc2= 0.00178742         
    pdiblcb=          0 V^-1         pscbe1=6.97348e+09 V/m     
     pscbe2=1.46235e-07 V/m           drout=   0.787354         
       pvag=       0.05             nfactor=   0.571097         
       cdsc=0.000860723 f/m^2         cdscb=          0 f/V/m^2 
      cdscd=          0 f/V/m^2         cit=          0 f/m^2   
     alpha0=          0 m/V           beta0=         30 V       
        dlc=1.73552e-09 meter           dwc=7.18696e-08 meter   
        clc=      1e-07 meter           cle=        0.6         
       cgso=   1.96e-10 f/m            cgdo=   1.96e-10 f/m     
       cgbo=          0 f/m            cgsl=          0 f/m     
       cgdl=          0 f/m          ckappa=        0.6         
         cf=8.75406e-11 f/m            tnom=     300.15 K       
        kt1=      -0.11 V              kt1l=          0         
        kt2=      0.022                 ute=       -1.5         
        ua1=   4.31e-09 m/V             ub1=  -7.61e-18 (m/V)^2 
        uc1=   -5.6e-11 m/V^2            at=      33000 m/s     
        prt=          0         
        using Berkeley noise model       noiMod=          1         
       noia=      1e+20                noib=      50000         
       noic=   -1.4e-12                  em=    4.1e+07         
         ef=          1                  af=          1         
         kf=          0         
        using Hspice diodes            using ACM 
        acm=         0                 hdif=         0 meter    
       ldif=         0 meter             js=         0 amp/m^2  
        jsw=         0 amp/m            xti=         0          
          n=         1                   cj=0.000927696 f/m^2    
         mj=   0.35577                   pb=  0.815796 V        
       cjsw=3.18106e-10 f/m             mjsw=       0.1          
        php=  0.815796 V               pbsw (not used)           
     cjgate=3.18106e-10 f/m            cjswg (not used)           
      mjswg (not used)                 pbswg (not used)           
      lketa= -0.0129496               wketa=-0.000764319         
      pvth0= -0.0252481                 pk2=-0.00480537         
      prdsw=   -96.4503         
***************************************************************************
***        model parameters  model name:   0:pch      model type:pmos   ***
***************************************************************************

  *** general parameters ***
   deriv=   0.           

  ***  level 49  model parameters  ***

     hspver=       98.2               level=         49         
    version=        3.1            paramchk=          0         
     apwarn=          1             binUnit=          1         
     capMod=          2               xpart=          1         
     mobMod=          1              nqsMod=          0         
        elm=          5            sfvtflag=          0         
        tox=    7.6e-09 meter            xj=    1.5e-07 meter   
    binflag=          0                lmin=          0 meter   
       lmax=          0 meter          wmin=          0 meter   
       wmax=          0 meter          lref=          0 meter   
       wref=          0 meter          lint=4.30928e-09 meter   
       wint=5.96223e-08 meter         lmult=          1         
      wmult=          1                  ll=          0         
        lln=          1                  lw=          0         
        lwn=          1                 lwl=          0         
         wl=          0                 wln=          1         
         ww=          0                 wwn=          1         
        wwl=          0                 dwg=-1.5962e-08 m/V     
        dwb=1.37892e-08 m/V^1/2          a0=    1.12101         
        ags=   0.396195 V^-1             b0=6.49314e-07 meter   
         b1=4.27322e-06 meter          keta=   -0.00927 V^-1    
       voff=      -0.15 V             ngate=          0 cm^-3   
        vbx=          0 V               vbm=         -3 V       
         xt=   1.55e-07 meter          vth0=  -0.663659 V       
        nch=    1.7e+17 cm^-3          nsub=      6e+16 cm^-3   
        nlx=1.51028e-07 meter        gamma1=          0 V^-1/2  
     gamma2=          0 V^-1/2           k1=   0.456478 V^1/2   
         k2=  -0.019447                  k3=    39.3829         
        k3b=    -2.8931 V^-1             w0=2.65558e-06 meter   
       dvt0=    1.17446                dvt1=   0.763113         
       dvt2=  -0.103517 V^-1          dvt0w=          0 meter^-1
      dvt1w=    5.3e+06 meter^-1      dvt2w=     -0.032 V^-1    
       dsub=   0.243603                eta0=  0.0286461         
       etab=          0 V^-1             u0=    151.331 cm^2/V/sec
         ua=2.06121e-10 m/V              ub=1.82348e-18 (m/V)^2 
         uc=-8.97321e-12 V^-1           vsat=      99156 m/sec   
         a1=          0 v^-1             a2=          1         
      delta=       0.01 V              rdsw=    2307.25 ohm-um  
       prwg=     -0.001 V^-1           prwb=          0 V^-1/2  
         wr=          1                pclm=    4.35975         
    pdiblc1=0.000744702             pdiblc2= 0.00425607         
    pdiblcb=          0 V^-1         pscbe1=1.34762e+10 V/m     
     pscbe2=      5e-09 V/m           drout=  0.0120292         
       pvag=    3.66979             nfactor=          2         
       cdsc=0.000659308 f/m^2         cdscb=          0 f/V/m^2 
      cdscd=          0 f/V/m^2         cit=          0 f/m^2   
     alpha0=          0 m/V           beta0=         30 V       
        dlc=4.30928e-09 meter           dwc=5.96223e-08 meter   
        clc=      1e-07 meter           cle=        0.6         
       cgso=  2.307e-10 f/m            cgdo=  2.307e-10 f/m     
       cgbo=          0 f/m            cgsl=          0 f/m     
       cgdl=          0 f/m          ckappa=        0.6         
         cf=8.75406e-11 f/m            tnom=     300.15 K       
        kt1=      -0.11 V              kt1l=          0         
        kt2=      0.022                 ute=       -1.5         
        ua1=   4.31e-09 m/V             ub1=  -7.61e-18 (m/V)^2 
        uc1=   -5.6e-11 m/V^2            at=      33000 m/s     
        prt=          0         
        using Berkeley noise model       noiMod=          1         
       noia=    9.9e+18                noib=       2400         
       noic=    1.4e-12                  em=    4.1e+07         
         ef=          1                  af=          1         
         kf=          0         
        using Hspice diodes            using ACM 
        acm=         0                 hdif=         0 meter    
       ldif=         0 meter             js=         0 amp/m^2  
        jsw=         0 amp/m            xti=         0          
          n=         1                   cj=0.00142028 f/m^2    
         mj=  0.549088                   pb=      0.99 V        
       cjsw=4.77361e-10 f/m             mjsw=  0.199742          
        php=      0.99 V               pbsw (not used)           
     cjgate=4.77361e-10 f/m            cjswg (not used)           
      mjswg (not used)                 pbswg (not used)           
      lketa= 0.00602797               wketa= -0.0101398         
      pvth0= 0.00658707                 pk2= 0.00101159         
      prdsw=   -93.5582         

**warning** both nodes of source     0:vgnd            
            are connected together



Warning: Pd = 0 is less than W.
Model:    0:nch
W = 2e-05, L = 3.5e-07

******  Star-HSPICE  --    98.2  (980711)  03:23:17  01/09/2000  solaris      
******  
*      $id$                                                                   
 ******  circuit element summary          tnom=  25.000 temp=  25.000         
******  


**** capacitors
 
element name       0:cloadr      0:cloadf      1:c1          1:c2      
node1              0:outputr     0:outputf     0:vdd         0:inputr  
node2              0:0           0:0           0:0           0:0       
model                                                                  
cap eff            2.5000f       2.5000f      10.0000f      10.0000f   
tc1                0.            0.            0.            0.        
tc2                0.            0.            0.            0.        
scale              1.0000        1.0000        1.0000        1.0000    
ic                 0.            0.            0.            0.        
m                  1.0000        1.0000        1.0000        1.0000    
w                  0.            0.            0.            0.        
l                  0.            0.            0.            0.        
temp              25.0000       25.0000       25.0000       25.0000    
 
element name       1:c3          2:c1          2:c2          2:c3      
node1              0:outputf     0:vdd         0:inputf      0:outputr 
node2              0:0           0:0           0:0           0:0       
model                                                                  
cap eff           20.0000f      10.0000f      10.0000f      20.0000f   
tc1                0.            0.            0.            0.        
tc2                0.            0.            0.            0.        
scale              1.0000        1.0000        1.0000        1.0000    
ic                 0.            0.            0.            0.        
m                  1.0000        1.0000        1.0000        1.0000    
w                  0.            0.            0.            0.        
l                  0.            0.            0.            0.        
temp              25.0000       25.0000       25.0000       25.0000    


**** independent sources

    name         node1        node2      dc volt    ac mag    ac phase    type
   0:vvdd       0:vdd        0:0           2.9700     0.         0.      dc   
   0:vinr       0:vinr       0:0           0.         0.         0.      exp  
            initial value     0.     
            pulsed value.     2.9700 
            rise delay...     1.0000n
            rise tau.....    18.2049p
            fall delay...    19.2049n
            fall tau.....    18.2049p

   0:vinf       0:vinf       0:0           2.9700     0.         0.      exp  
            initial value     2.9700 
            pulsed value.     0.     
            rise delay...     1.0000n
            rise tau.....    18.2049p
            fall delay...    19.2049n
            fall tau.....    18.2049p

   0:vshortr    0:vinr       0:inputr      0.         0.         0.      dc   
   0:vshortf    0:vinf       0:inputf      0.         0.         0.      dc   


**** mosfets
 
element name       1:mn0         1:mn1         1:mp2         1:mp3     
drain              0:outputf     1:n0          0:outputf     0:outputf 
gate               0:vdd         0:inputr      0:vdd         0:inputr  
source             1:n0          0:0           0:vdd         0:vdd     
bulk               0:0           0:0           0:vdd         0:vdd     
model              0:nch         0:nch         0:pch         0:pch     
w eff             19.8563u      19.8563u      19.8808u      19.8808u   
l eff            346.5290n     346.5290n     341.3814n     341.3814n   
rd eff             0.            0.            0.            0.        
rs eff             0.            0.            0.            0.        
cdsat              0.            0.            0.            0.        
cssat              0.            0.            0.            0.        
capbd              0.            0.            0.            0.        
capbs              0.            0.            0.            0.        
aic                                                                    
 
element name       2:mn0         2:mn1         2:mp2         2:mp3     
drain              0:outputr     2:n0          0:outputr     0:outputr 
gate               0:vdd         0:inputf      0:vdd         0:inputf  
source             2:n0          0:0           0:vdd         0:vdd     
bulk               0:0           0:0           0:vdd         0:vdd     
model              0:nch         0:nch         0:pch         0:pch     
w eff             19.8563u      19.8563u      19.8808u      19.8808u   
l eff            346.5290n     346.5290n     341.3814n     341.3814n   
rd eff             0.            0.            0.            0.        
rs eff             0.            0.            0.            0.        
cdsat              0.            0.            0.            0.        
cssat              0.            0.            0.            0.        
capbd              0.            0.            0.            0.        
capbs              0.            0.            0.            0.        
aic                                                                    


**** subcircuit calls
   name        subcircuit         external nodes


    0:xdut0    nand2_4x        0:vdd         0:inputr      0:outputf 
    0:xdut1    nand2_4x        0:vdd         0:inputf      0:outputr 
******  Star-HSPICE  --    98.2  (980711)  03:23:17  01/09/2000  solaris      
******  
*      $id$                                                                   
 ******  option summary                                                       
******  

general information options-
  acct= 1        aspec= 0        spice= 0           co= 78
cptime=  10.00x epsmin= 1.0e-28 expmax=  80.00    genk= 1
ingold= 0       itrprt= 0         klim=  10.00m limtim=      2
  list= 1         node= 0        nomod= 0       nopage= 1
 notop= 0       numdgt= 4          nxx= 0         opts= 1
  plim= 0         post= 1        scale=   1.00u  scalm=   1.00 
  tnom=  25.00  badchr= 0        acout=   1.00  lennam= 8
nowarn= 0       autost= 1      measout= 1      measdgt= 4
noelck= 0       unwrap= 0        h9007= 0      icsweep= 1
parhie=global   bkpsiz=   5000

diagno= 0      warnlim=     1  pathnum=     0   optlst= 0
limpts=  2001  timeres=   1.00p resmin=  10.00u vfloor= 500.00n
 expli=   0.     bytol=  50.00u slopetol= 500.00m


mosfet default options -
 defad=   0.     defas=   0.      defl= 100.00u defnrd=   0.   
defnrs=   0.     defpd=   0.     defps=   0.      defw= 100.00u
    wl= 0        k2lim= 0

diode level 3 default option -
diorscal= 0

dc solution controls -
  absh=   0.      absi=   1.00n absmos=   1.00u absvdc=  50.00u
 dccap= 0        dcfor=      0  dchold=      1  dcstep=   0.   
    di= 100.00      dv=   1.00k   gmax= 100.00    gmin=   1.00p
gmindc=   1.00p gshunt=   0.    cshunt=   0.     cshdc=   1.00p
 gramp= 0     converge= 0         itl1=    200    itl2=     50
newtol= 0        nopiv= 0        pivot=10      kcltest= 0
pivref= 100.00x pivrel= 100.00u pivtol=   1.00f   relh=  50.00m
  reli=  10.00m relmos=  50.00m relvdc=   1.00m rmaxdc= 100.00 
maxamp=   0.      dcon= 0          off= 0       captab= 0


  search paths for subcircuit references 
 path 1 = 
 path 2 =/cad/avanti/98.2/parts/ad 
 path 3 =/cad/avanti/98.2/parts/behave 
 path 4 =/cad/avanti/98.2/parts/bjt 
 path 5 =/cad/avanti/98.2/parts/burr_brn 
 path 6 =/cad/avanti/98.2/parts/comlinear 
 path 7 =/cad/avanti/98.2/parts/dio 
 path 8 =/cad/avanti/98.2/parts/fet 
 path 9 =/cad/avanti/98.2/parts/lin_tech 
 path10 =/cad/avanti/98.2/parts/pci 
 path11 =/cad/avanti/98.2/parts/signet 
 path12 =/cad/avanti/98.2/parts/ti 
 path13 =/cad/avanti/98.2/parts/tline 
 path14 =/cad/avanti/98.2/parts/xilinx 
 path15 =/cad/avanti/98.2/parts 

transient analysis controls -
  absv=  50.00u   relv=   1.00m
absvar= 500.00m chgtol=   1.00f  cvtol= 200.00m   dcap= 2
delmax= 240.00p     fs= 250.00m     ft= 250.00m   imax=      8
  imin=      3    itl5=      0  lvltim=   2         mu= 500.00m
maxord= 2       method=gear       relq=   2.00m relvar= 300.00m
  rmin=   1.00n   rmax=   2.00   trtol=   7.00  bypass=   0.   
  fast= 0       interp= 0         dvtr=   1.00k   dvdt= 3
accurate= 0      mbypass=   1.00 
 Opening plot unit= 15
file=./nand2_4x.in1.out.ld_0.pa0                                              

******  Star-HSPICE  --    98.2  (980711)  03:23:17  01/09/2000  solaris      
******  
*      $id$                                                                   
 ******  temperature-adjusted values      tnom=  25.000 temp= 100.000         
******  

constants  - temp         kt           vt           gapsi        ni
            373.1500     5.152e-21     32.1547m      1.0940     1.934e+18 

*** capacitors
   name        eff val



*** mosfet element parameters
name           rd eff   rs eff   cdsat    cssat     vto      beta


   1:mn0         0.       0.       0.       0.     492.78m   11.27m
   1:mn1         0.       0.       0.       0.     492.78m   11.27m
   1:mp2         0.       0.       0.       0.    -662.69m    4.77m
   1:mp3         0.       0.       0.       0.    -662.69m    4.77m
   2:mn0         0.       0.       0.       0.     492.78m   11.27m
   2:mn1         0.       0.       0.       0.     492.78m   11.27m
   2:mp2         0.       0.       0.       0.    -662.69m    4.77m
   2:mp3         0.       0.       0.       0.    -662.69m    4.77m
******  Star-HSPICE  --    98.2  (980711)  03:23:17  01/09/2000  solaris      
******  
*      $id$                                                                   
 ******  operating point information      tnom=  25.000 temp= 100.000         
******  
***** operating point status is voltage   simulation time is     0.     
   node    =voltage      node    =voltage      node    =voltage


+0:inputf  =   2.9700  0:inputr  =   0.      0:outputf =   2.9700 
+0:outputr =  21.1218n 0:vdd     =   2.9700  0:vinf    =   2.9700 
+0:vinr    =   0.      1:n0      =   2.4544  2:n0      =  10.5609n



 Opening plot unit= 15
file=./nand2_4x.in1.out.ld_0.tr0                                              

******  
*      $id$                                                                   
 ******  transient analysis               tnom=  25.000 temp= 100.000         
******  
  tplh            =  7.4624E-11  targ=  1.0874E-09   trig=  1.0128E-09
  tphl            =  4.6188E-11  targ=  1.0590E-09   trig=  1.0128E-09
  risetime        =  9.9503E-11  targ=  1.1460E-09   trig=  1.0465E-09
  falltime        =  5.9393E-11  targ=  1.1024E-09   trig=  1.0430E-09
  inputrise       =  4.0089E-11  targ=  1.0420E-09   trig=  1.0019E-09
  inputfall       =  4.0089E-11  targ=  1.0420E-09   trig=  1.0019E-09

         ***** job concluded
******  Star-HSPICE  --    98.2  (980711)  03:23:17  01/09/2000  solaris      
******  
*      $id$                                                                   
 ******  job statistics summary           tnom=  25.000 temp= 100.000         
******  

          total memory used        170 kbytes

 # nodes =    10 # elements=    21
 # diodes=     0 # bjts    =     0 # jfets   =     0 # mosfets =     8

    analysis      time      # points  tot. iter  conv.iter

    op point          0.01         1        16
    transient         0.12      2401       310       145 rev=   12
    readin            0.24
    errchk            0.02
    setup             0.00
    output            0.00
          total cpu time          0.40 seconds
              job started at  03:23:17  01/09/2000
              job ended   at  03:23:18  01/09/2000


******  Star-HSPICE  --    98.2  (980711)  03:23:17  01/09/2000  solaris      
******  
                                                                              
 ******    alter processing listing       tnom=  25.000 temp= 100.000         
******  
.param cload = '1e-14'
 
.alter
$ alter processing continues $
scientific notation:
f=10**-15  p=10**-12  n=10**-9  u=10**-6  m=10**-3
k=10**3    x=10**6    g=10**9 
******  Star-HSPICE  --    98.2  (980711)  03:23:17  01/09/2000  solaris      
******  
*      $id$                                                                   
 ******  circuit name directory                                               
******  
circuit number to circuit name directory
number  circuitname                   definition        multiplier
    0 main circuit
    1 xdut0.                          nand2_4x           1.00 
    2 xdut1.                          nand2_4x           1.00 


circuit parameter definitions
 parameter          =  value 

    0:trise                                                   = 200.0000p      
    0:tfall                                                   = 200.0000p      
    0:period                                                  =   6.0000n      
    0:pwidth                                                  =   3.0000n      
    0:vhigh                                                   =   2.9700       
    0:vlow                                                    =   0.           
    0:vmidpoint                                               =   1.4850       
    0:cload                                                   =  10.0000f      
    0:slewrate                                                =  40.0002p      
    0:slew_start                                              = 100.0000m      
    0:slew_end                                                = 900.0000m      
    0:tau                                                     =  18.2049p      
    0:tplh                                                    =   0.           
    0:tphl                                                    =   0.           
    0:risetime                                                =   0.           
    0:falltime                                                =   0.           
    0:inputrise                                               =   0.           
    0:inputfall                                               =   0.           




constants  - tnom         kt           vt           gapsi        ni
           298.1500     4.116e-21     25.6918m      1.1156     1.256e+16  
******  Star-HSPICE  --    98.2  (980711)  03:23:17  01/09/2000  solaris      
******  
*      $id$                                                                   
 ******  mos   model parameters           tnom=  25.000 temp=  25.000         
******  
***************************************************************************
***        model parameters  model name:   0:nch      model type:nmos   ***
***************************************************************************

  *** general parameters ***
   deriv=   0.           

  ***  level 49  model parameters  ***

     hspver=       98.2               level=         49         
    version=        3.1            paramchk=          0         
     apwarn=          1             binUnit=          1         
     capMod=          2               xpart=          1         
     mobMod=          1              nqsMod=          0         
        elm=          5            sfvtflag=          0         
        tox=    7.6e-09 meter            xj=    1.5e-07 meter   
    binflag=          0                lmin=          0 meter   
       lmax=          0 meter          wmin=          0 meter   
       wmax=          0 meter          lref=          0 meter   
       wref=          0 meter          lint=1.73552e-09 meter   
       wint=7.18696e-08 meter         lmult=          1         
      wmult=          1                  ll=          0         
        lln=          1                  lw=          0         
        lwn=          1                 lwl=          0         
         wl=          0                 wln=          1         
         ww=          0                 wwn=          1         
        wwl=          0                 dwg=-1.71297e-08 m/V     
        dwb=5.85169e-09 m/V^1/2          a0=    1.13562         
        ags=   0.281037 V^-1             b0=2.84439e-07 meter   
         b1=      5e-06 meter          keta= -0.0078181 V^-1    
       voff=  -0.132935 V             ngate=          0 cm^-3   
        vbx=          0 V               vbm=         -3 V       
         xt=   1.55e-07 meter          vth0=   0.496445 V       
        nch=    1.7e+17 cm^-3          nsub=      6e+16 cm^-3   
        nlx= 2.8948e-07 meter        gamma1=          0 V^-1/2  
     gamma2=          0 V^-1/2           k1=   0.530777 V^1/2   
         k2=  0.0199705                  k3=   0.296364         
        k3b=   0.201216 V^-1             w0=2.83632e-06 meter   
       dvt0=   0.112017                dvt1=   0.245397         
       dvt2=  -0.171915 V^-1          dvt0w=          0 meter^-1
      dvt1w=    5.3e+06 meter^-1      dvt2w=     -0.032 V^-1    
       dsub=  0.0257957                eta0= 0.00212832         
       etab=          0 V^-1             u0=    444.938 cm^2/V/sec
         ua=2.92128e-10 m/V              ub=1.77328e-18 (m/V)^2 
         uc= 7.0679e-11 V^-1           vsat=     113078 m/sec   
         a1=          0 v^-1             a2=          1         
      delta=       0.01 V              rdsw=     925.27 ohm-um  
       prwg=     -0.001 V^-1           prwb=     -0.001 V^-1/2  
         wr=          1                pclm=   0.676631         
    pdiblc1=          1             pdiblc2= 0.00178742         
    pdiblcb=          0 V^-1         pscbe1=6.97348e+09 V/m     
     pscbe2=1.46235e-07 V/m           drout=   0.787354         
       pvag=       0.05             nfactor=   0.571097         
       cdsc=0.000860723 f/m^2         cdscb=          0 f/V/m^2 
      cdscd=          0 f/V/m^2         cit=          0 f/m^2   
     alpha0=          0 m/V           beta0=         30 V       
        dlc=1.73552e-09 meter           dwc=7.18696e-08 meter   
        clc=      1e-07 meter           cle=        0.6         
       cgso=   1.96e-10 f/m            cgdo=   1.96e-10 f/m     
       cgbo=          0 f/m            cgsl=          0 f/m     
       cgdl=          0 f/m          ckappa=        0.6         
         cf=8.75406e-11 f/m            tnom=     300.15 K       
        kt1=      -0.11 V              kt1l=          0         
        kt2=      0.022                 ute=       -1.5         
        ua1=   4.31e-09 m/V             ub1=  -7.61e-18 (m/V)^2 
        uc1=   -5.6e-11 m/V^2            at=      33000 m/s     
        prt=          0         
        using Berkeley noise model       noiMod=          1         
       noia=      1e+20                noib=      50000         
       noic=   -1.4e-12                  em=    4.1e+07         
         ef=          1                  af=          1         
         kf=          0         
        using Hspice diodes            using ACM 
        acm=         0                 hdif=         0 meter    
       ldif=         0 meter             js=         0 amp/m^2  
        jsw=         0 amp/m            xti=         0          
          n=         1                   cj=0.000927696 f/m^2    
         mj=   0.35577                   pb=  0.815796 V        
       cjsw=3.18106e-10 f/m             mjsw=       0.1          
        php=  0.815796 V               pbsw (not used)           
     cjgate=3.18106e-10 f/m            cjswg (not used)           
      mjswg (not used)                 pbswg (not used)           
      lketa= -0.0129496               wketa=-0.000764319         
      pvth0= -0.0252481                 pk2=-0.00480537         
      prdsw=   -96.4503         
***************************************************************************
***        model parameters  model name:   0:pch      model type:pmos   ***
***************************************************************************

  *** general parameters ***
   deriv=   0.           

  ***  level 49  model parameters  ***

     hspver=       98.2               level=         49         
    version=        3.1            paramchk=          0         
     apwarn=          1             binUnit=          1         
     capMod=          2               xpart=          1         
     mobMod=          1              nqsMod=          0         
        elm=          5            sfvtflag=          0         
        tox=    7.6e-09 meter            xj=    1.5e-07 meter   
    binflag=          0                lmin=          0 meter   
       lmax=          0 meter          wmin=          0 meter   
       wmax=          0 meter          lref=          0 meter   
       wref=          0 meter          lint=4.30928e-09 meter   
       wint=5.96223e-08 meter         lmult=          1         
      wmult=          1                  ll=          0         
        lln=          1                  lw=          0         
        lwn=          1                 lwl=          0         
         wl=          0                 wln=          1         
         ww=          0                 wwn=          1         
        wwl=          0                 dwg=-1.5962e-08 m/V     
        dwb=1.37892e-08 m/V^1/2          a0=    1.12101         
        ags=   0.396195 V^-1             b0=6.49314e-07 meter   
         b1=4.27322e-06 meter          keta=   -0.00927 V^-1    
       voff=      -0.15 V             ngate=          0 cm^-3   
        vbx=          0 V               vbm=         -3 V       
         xt=   1.55e-07 meter          vth0=  -0.663659 V       
        nch=    1.7e+17 cm^-3          nsub=      6e+16 cm^-3   
        nlx=1.51028e-07 meter        gamma1=          0 V^-1/2  
     gamma2=          0 V^-1/2           k1=   0.456478 V^1/2   
         k2=  -0.019447                  k3=    39.3829         
        k3b=    -2.8931 V^-1             w0=2.65558e-06 meter   
       dvt0=    1.17446                dvt1=   0.763113         
       dvt2=  -0.103517 V^-1          dvt0w=          0 meter^-1
      dvt1w=    5.3e+06 meter^-1      dvt2w=     -0.032 V^-1    
       dsub=   0.243603                eta0=  0.0286461         
       etab=          0 V^-1             u0=    151.331 cm^2/V/sec
         ua=2.06121e-10 m/V              ub=1.82348e-18 (m/V)^2 
         uc=-8.97321e-12 V^-1           vsat=      99156 m/sec   
         a1=          0 v^-1             a2=          1         
      delta=       0.01 V              rdsw=    2307.25 ohm-um  
       prwg=     -0.001 V^-1           prwb=          0 V^-1/2  
         wr=          1                pclm=    4.35975         
    pdiblc1=0.000744702             pdiblc2= 0.00425607         
    pdiblcb=          0 V^-1         pscbe1=1.34762e+10 V/m     
     pscbe2=      5e-09 V/m           drout=  0.0120292         
       pvag=    3.66979             nfactor=          2         
       cdsc=0.000659308 f/m^2         cdscb=          0 f/V/m^2 
      cdscd=          0 f/V/m^2         cit=          0 f/m^2   
     alpha0=          0 m/V           beta0=         30 V       
        dlc=4.30928e-09 meter           dwc=5.96223e-08 meter   
        clc=      1e-07 meter           cle=        0.6         
       cgso=  2.307e-10 f/m            cgdo=  2.307e-10 f/m     
       cgbo=          0 f/m            cgsl=          0 f/m     
       cgdl=          0 f/m          ckappa=        0.6         
         cf=8.75406e-11 f/m            tnom=     300.15 K       
        kt1=      -0.11 V              kt1l=          0         
        kt2=      0.022                 ute=       -1.5         
        ua1=   4.31e-09 m/V             ub1=  -7.61e-18 (m/V)^2 
        uc1=   -5.6e-11 m/V^2            at=      33000 m/s     
        prt=          0         
        using Berkeley noise model       noiMod=          1         
       noia=    9.9e+18                noib=       2400         
       noic=    1.4e-12                  em=    4.1e+07         
         ef=          1                  af=          1         
         kf=          0         
        using Hspice diodes            using ACM 
        acm=         0                 hdif=         0 meter    
       ldif=         0 meter             js=         0 amp/m^2  
        jsw=         0 amp/m            xti=         0          
          n=         1                   cj=0.00142028 f/m^2    
         mj=  0.549088                   pb=      0.99 V        
       cjsw=4.77361e-10 f/m             mjsw=  0.199742          
        php=      0.99 V               pbsw (not used)           
     cjgate=4.77361e-10 f/m            cjswg (not used)           
      mjswg (not used)                 pbswg (not used)           
      lketa= 0.00602797               wketa= -0.0101398         
      pvth0= 0.00658707                 pk2= 0.00101159         
      prdsw=   -93.5582         

**warning** both nodes of source     0:vgnd            
            are connected together

******  Star-HSPICE  --    98.2  (980711)  03:23:17  01/09/2000  solaris      
******  
*      $id$                                                                   
 ******  circuit element summary          tnom=  25.000 temp=  25.000         
******  


**** capacitors
 
element name       0:cloadr      0:cloadf      1:c1          1:c2      
node1              0:outputr     0:outputf     0:vdd         0:inputr  
node2              0:0           0:0           0:0           0:0       
model                                                                  
cap eff           10.0000f      10.0000f      10.0000f      10.0000f   
tc1                0.            0.            0.            0.        
tc2                0.            0.            0.            0.        
scale              1.0000        1.0000        1.0000        1.0000    
ic                 0.            0.            0.            0.        
m                  1.0000        1.0000        1.0000        1.0000    
w                  0.            0.            0.            0.        
l                  0.            0.            0.            0.        
temp              25.0000       25.0000       25.0000       25.0000    
 
element name       1:c3          2:c1          2:c2          2:c3      
node1              0:outputf     0:vdd         0:inputf      0:outputr 
node2              0:0           0:0           0:0           0:0       
model                                                                  
cap eff           20.0000f      10.0000f      10.0000f      20.0000f   
tc1                0.            0.            0.            0.        
tc2                0.            0.            0.            0.        
scale              1.0000        1.0000        1.0000        1.0000    
ic                 0.            0.            0.            0.        
m                  1.0000        1.0000        1.0000        1.0000    
w                  0.            0.            0.            0.        
l                  0.            0.            0.            0.        
temp              25.0000       25.0000       25.0000       25.0000    


**** independent sources

    name         node1        node2      dc volt    ac mag    ac phase    type
   0:vvdd       0:vdd        0:0           2.9700     0.         0.      dc   
   0:vinr       0:vinr       0:0           0.         0.         0.      exp  
            initial value     0.     
            pulsed value.     2.9700 
            rise delay...     1.0000n
            rise tau.....    18.2049p
            fall delay...    19.2049n
            fall tau.....    18.2049p

   0:vinf       0:vinf       0:0           2.9700     0.         0.      exp  
            initial value     2.9700 
            pulsed value.     0.     
            rise delay...     1.0000n
            rise tau.....    18.2049p
            fall delay...    19.2049n
            fall tau.....    18.2049p

   0:vshortr    0:vinr       0:inputr      0.         0.         0.      dc   
   0:vshortf    0:vinf       0:inputf      0.         0.         0.      dc   


**** mosfets
 
element name       1:mn0         1:mn1         1:mp2         1:mp3     
drain              0:outputf     1:n0          0:outputf     0:outputf 
gate               0:vdd         0:inputr      0:vdd         0:inputr  
source             1:n0          0:0           0:vdd         0:vdd     
bulk               0:0           0:0           0:vdd         0:vdd     
model              0:nch         0:nch         0:pch         0:pch     
w eff             19.8563u      19.8563u      19.8808u      19.8808u   
l eff            346.5290n     346.5290n     341.3814n     341.3814n   
rd eff             0.            0.            0.            0.        
rs eff             0.            0.            0.            0.        
cdsat              0.            0.            0.            0.        
cssat              0.            0.            0.            0.        
capbd              0.            0.            0.            0.        
capbs              0.            0.            0.            0.        
aic                                                                    
 
element name       2:mn0         2:mn1         2:mp2         2:mp3     
drain              0:outputr     2:n0          0:outputr     0:outputr 
gate               0:vdd         0:inputf      0:vdd         0:inputf  
source             2:n0          0:0           0:vdd         0:vdd     
bulk               0:0           0:0           0:vdd         0:vdd     
model              0:nch         0:nch         0:pch         0:pch     
w eff             19.8563u      19.8563u      19.8808u      19.8808u   
l eff            346.5290n     346.5290n     341.3814n     341.3814n   
rd eff             0.            0.            0.            0.        
rs eff             0.            0.            0.            0.        
cdsat              0.            0.            0.            0.        
cssat              0.            0.            0.            0.        
capbd              0.            0.            0.            0.        
capbs              0.            0.            0.            0.        
aic                                                                    


**** subcircuit calls
   name        subcircuit         external nodes


    0:xdut0    nand2_4x        0:vdd         0:inputr      0:outputf 
    0:xdut1    nand2_4x        0:vdd         0:inputf      0:outputr 
******  Star-HSPICE  --    98.2  (980711)  03:23:17  01/09/2000  solaris      
******  
*      $id$                                                                   
 ******  option summary                                                       
******  

general information options-
  acct= 1        aspec= 0        spice= 0           co= 78
cptime=  10.00x epsmin= 1.0e-28 expmax=  80.00    genk= 1
ingold= 0       itrprt= 0         klim=  10.00m limtim=      2
  list= 1         node= 0        nomod= 0       nopage= 1
 notop= 0       numdgt= 4          nxx= 0         opts= 1
  plim= 0         post= 1        scale=   1.00u  scalm=   1.00 
  tnom=  25.00  badchr= 0        acout=   1.00  lennam= 8
nowarn= 0       autost= 1      measout= 1      measdgt= 4
noelck= 0       unwrap= 0        h9007= 0      icsweep= 1
parhie=global   bkpsiz=   5000

diagno= 0      warnlim=     1  pathnum=     0   optlst= 0
limpts=  2001  timeres=   1.00p resmin=  10.00u vfloor= 500.00n
 expli=   0.     bytol=  50.00u slopetol= 500.00m


mosfet default options -
 defad=   0.     defas=   0.      defl= 100.00u defnrd=   0.   
defnrs=   0.     defpd=   0.     defps=   0.      defw= 100.00u
    wl= 0        k2lim= 0

diode level 3 default option -
diorscal= 0

dc solution controls -
  absh=   0.      absi=   1.00n absmos=   1.00u absvdc=  50.00u
 dccap= 0        dcfor=      0  dchold=      1  dcstep=   0.   
    di= 100.00      dv=   1.00k   gmax= 100.00    gmin=   1.00p
gmindc=   1.00p gshunt=   0.    cshunt=   0.     cshdc=   1.00p
 gramp= 0     converge= 0         itl1=    200    itl2=     50
newtol= 0        nopiv= 0        pivot=10      kcltest= 0
pivref= 100.00x pivrel= 100.00u pivtol=   1.00f   relh=  50.00m
  reli=  10.00m relmos=  50.00m relvdc=   1.00m rmaxdc= 100.00 
maxamp=   0.      dcon= 0          off= 0       captab= 0


  search paths for subcircuit references 
 path 1 = 
 path 2 =/cad/avanti/98.2/parts/ad 
 path 3 =/cad/avanti/98.2/parts/behave 
 path 4 =/cad/avanti/98.2/parts/bjt 
 path 5 =/cad/avanti/98.2/parts/burr_brn 
 path 6 =/cad/avanti/98.2/parts/comlinear 
 path 7 =/cad/avanti/98.2/parts/dio 
 path 8 =/cad/avanti/98.2/parts/fet 
 path 9 =/cad/avanti/98.2/parts/lin_tech 
 path10 =/cad/avanti/98.2/parts/pci 
 path11 =/cad/avanti/98.2/parts/signet 
 path12 =/cad/avanti/98.2/parts/ti 
 path13 =/cad/avanti/98.2/parts/tline 
 path14 =/cad/avanti/98.2/parts/xilinx 
 path15 =/cad/avanti/98.2/parts 

transient analysis controls -
  absv=  50.00u   relv=   1.00m
absvar= 500.00m chgtol=   1.00f  cvtol= 200.00m   dcap= 2
delmax= 240.00p     fs= 250.00m     ft= 250.00m   imax=      8
  imin=      3    itl5=      0  lvltim=   2         mu= 500.00m
maxord= 2       method=gear       relq=   2.00m relvar= 300.00m
  rmin=   1.00n   rmax=   2.00   trtol=   7.00  bypass=   0.   
  fast= 0       interp= 0         dvtr=   1.00k   dvdt= 3
accurate= 0      mbypass=   1.00 
 Opening plot unit= 15
file=./nand2_4x.in1.out.ld_0.pa1                                              

******  Star-HSPICE  --    98.2  (980711)  03:23:17  01/09/2000  solaris      
******  
*      $id$                                                                   
 ******  temperature-adjusted values      tnom=  25.000 temp= 100.000         
******  

constants  - temp         kt           vt           gapsi        ni
            373.1500     5.152e-21     32.1547m      1.0940     1.934e+18 

*** capacitors
   name        eff val



*** mosfet element parameters
name           rd eff   rs eff   cdsat    cssat     vto      beta


   1:mn0         0.       0.       0.       0.     492.78m   11.27m
   1:mn1         0.       0.       0.       0.     492.78m   11.27m
   1:mp2         0.       0.       0.       0.    -662.69m    4.77m
   1:mp3         0.       0.       0.       0.    -662.69m    4.77m
   2:mn0         0.       0.       0.       0.     492.78m   11.27m
   2:mn1         0.       0.       0.       0.     492.78m   11.27m
   2:mp2         0.       0.       0.       0.    -662.69m    4.77m
   2:mp3         0.       0.       0.       0.    -662.69m    4.77m
******  Star-HSPICE  --    98.2  (980711)  03:23:17  01/09/2000  solaris      
******  
*      $id$                                                                   
 ******  operating point information      tnom=  25.000 temp= 100.000         
******  
***** operating point status is voltage   simulation time is     0.     
   node    =voltage      node    =voltage      node    =voltage


+0:inputf  =   2.9700  0:inputr  =   0.      0:outputf =   2.9700 
+0:outputr =  21.1218n 0:vdd     =   2.9700  0:vinf    =   2.9700 
+0:vinr    =   0.      1:n0      =   2.4544  2:n0      =  10.5609n



 Opening plot unit= 15
file=./nand2_4x.in1.out.ld_0.tr1                                              

******  
*      $id$                                                                   
 ******  transient analysis               tnom=  25.000 temp= 100.000         
******  
  tplh            =  7.8783E-11  targ=  1.0916E-09   trig=  1.0128E-09
  tphl            =  5.1209E-11  targ=  1.0640E-09   trig=  1.0128E-09
  risetime        =  1.0764E-10  targ=  1.1553E-09   trig=  1.0477E-09
  falltime        =  6.4925E-11  targ=  1.1087E-09   trig=  1.0438E-09
  inputrise       =  4.0053E-11  targ=  1.0420E-09   trig=  1.0019E-09
  inputfall       =  4.0053E-11  targ=  1.0420E-09   trig=  1.0019E-09

         ***** job concluded
******  Star-HSPICE  --    98.2  (980711)  03:23:17  01/09/2000  solaris      
******  
*      $id$                                                                   
 ******  job statistics summary           tnom=  25.000 temp= 100.000         
******  

          total memory used        170 kbytes

 # nodes =    10 # elements=    21
 # diodes=     0 # bjts    =     0 # jfets   =     0 # mosfets =     8

    analysis      time      # points  tot. iter  conv.iter

    op point          0.01         1        16
    transient         0.12      2401       304       143 rev=   10
    readin            0.06
    errchk            0.02
    setup             0.00
    output            0.00
          total cpu time          0.21 seconds
              job started at  03:23:17  01/09/2000
              job ended   at  03:23:18  01/09/2000


******  Star-HSPICE  --    98.2  (980711)  03:23:17  01/09/2000  solaris      
******  
                                                                              
 ******    alter processing listing       tnom=  25.000 temp= 100.000         
******  
.param cload = '2.5e-14'
 
.alter
$ alter processing continues $
scientific notation:
f=10**-15  p=10**-12  n=10**-9  u=10**-6  m=10**-3
k=10**3    x=10**6    g=10**9 
******  Star-HSPICE  --    98.2  (980711)  03:23:17  01/09/2000  solaris      
******  
*      $id$                                                                   
 ******  circuit name directory                                               
******  
circuit number to circuit name directory
number  circuitname                   definition        multiplier
    0 main circuit
    1 xdut0.                          nand2_4x           1.00 
    2 xdut1.                          nand2_4x           1.00 


circuit parameter definitions
 parameter          =  value 

    0:trise                                                   = 200.0000p      
    0:tfall                                                   = 200.0000p      
    0:period                                                  =   6.0000n      
    0:pwidth                                                  =   3.0000n      
    0:vhigh                                                   =   2.9700       
    0:vlow                                                    =   0.           
    0:vmidpoint                                               =   1.4850       
    0:cload                                                   =  25.0000f      
    0:slewrate                                                =  40.0002p      
    0:slew_start                                              = 100.0000m      
    0:slew_end                                                = 900.0000m      
    0:tau                                                     =  18.2049p      
    0:tplh                                                    =   0.           
    0:tphl                                                    =   0.           
    0:risetime                                                =   0.           
    0:falltime                                                =   0.           
    0:inputrise                                               =   0.           
    0:inputfall                                               =   0.           




constants  - tnom         kt           vt           gapsi        ni
           298.1500     4.116e-21     25.6918m      1.1156     1.256e+16  
******  Star-HSPICE  --    98.2  (980711)  03:23:17  01/09/2000  solaris      
******  
*      $id$                                                                   
 ******  mos   model parameters           tnom=  25.000 temp=  25.000         
******  
***************************************************************************
***        model parameters  model name:   0:nch      model type:nmos   ***
***************************************************************************

  *** general parameters ***
   deriv=   0.           

  ***  level 49  model parameters  ***

     hspver=       98.2               level=         49         
    version=        3.1            paramchk=          0         
     apwarn=          1             binUnit=          1         
     capMod=          2               xpart=          1         
     mobMod=          1              nqsMod=          0         
        elm=          5            sfvtflag=          0         
        tox=    7.6e-09 meter            xj=    1.5e-07 meter   
    binflag=          0                lmin=          0 meter   
       lmax=          0 meter          wmin=          0 meter   
       wmax=          0 meter          lref=          0 meter   
       wref=          0 meter          lint=1.73552e-09 meter   
       wint=7.18696e-08 meter         lmult=          1         
      wmult=          1                  ll=          0         
        lln=          1                  lw=          0         
        lwn=          1                 lwl=          0         
         wl=          0                 wln=          1         
         ww=          0                 wwn=          1         
        wwl=          0                 dwg=-1.71297e-08 m/V     
        dwb=5.85169e-09 m/V^1/2          a0=    1.13562         
        ags=   0.281037 V^-1             b0=2.84439e-07 meter   
         b1=      5e-06 meter          keta= -0.0078181 V^-1    
       voff=  -0.132935 V             ngate=          0 cm^-3   
        vbx=          0 V               vbm=         -3 V       
         xt=   1.55e-07 meter          vth0=   0.496445 V       
        nch=    1.7e+17 cm^-3          nsub=      6e+16 cm^-3   
        nlx= 2.8948e-07 meter        gamma1=          0 V^-1/2  
     gamma2=          0 V^-1/2           k1=   0.530777 V^1/2   
         k2=  0.0199705                  k3=   0.296364         
        k3b=   0.201216 V^-1             w0=2.83632e-06 meter   
       dvt0=   0.112017                dvt1=   0.245397         
       dvt2=  -0.171915 V^-1          dvt0w=          0 meter^-1
      dvt1w=    5.3e+06 meter^-1      dvt2w=     -0.032 V^-1    
       dsub=  0.0257957                eta0= 0.00212832         
       etab=          0 V^-1             u0=    444.938 cm^2/V/sec
         ua=2.92128e-10 m/V              ub=1.77328e-18 (m/V)^2 
         uc= 7.0679e-11 V^-1           vsat=     113078 m/sec   
         a1=          0 v^-1             a2=          1         
      delta=       0.01 V              rdsw=     925.27 ohm-um  
       prwg=     -0.001 V^-1           prwb=     -0.001 V^-1/2  
         wr=          1                pclm=   0.676631         
    pdiblc1=          1             pdiblc2= 0.00178742         
    pdiblcb=          0 V^-1         pscbe1=6.97348e+09 V/m     
     pscbe2=1.46235e-07 V/m           drout=   0.787354         
       pvag=       0.05             nfactor=   0.571097         
       cdsc=0.000860723 f/m^2         cdscb=          0 f/V/m^2 
      cdscd=          0 f/V/m^2         cit=          0 f/m^2   
     alpha0=          0 m/V           beta0=         30 V       
        dlc=1.73552e-09 meter           dwc=7.18696e-08 meter   
        clc=      1e-07 meter           cle=        0.6         
       cgso=   1.96e-10 f/m            cgdo=   1.96e-10 f/m     
       cgbo=          0 f/m            cgsl=          0 f/m     
       cgdl=          0 f/m          ckappa=        0.6         
         cf=8.75406e-11 f/m            tnom=     300.15 K       
        kt1=      -0.11 V              kt1l=          0         
        kt2=      0.022                 ute=       -1.5         
        ua1=   4.31e-09 m/V             ub1=  -7.61e-18 (m/V)^2 
        uc1=   -5.6e-11 m/V^2            at=      33000 m/s     
        prt=          0         
        using Berkeley noise model       noiMod=          1         
       noia=      1e+20                noib=      50000         
       noic=   -1.4e-12                  em=    4.1e+07         
         ef=          1                  af=          1         
         kf=          0         
        using Hspice diodes            using ACM 
        acm=         0                 hdif=         0 meter    
       ldif=         0 meter             js=         0 amp/m^2  
        jsw=         0 amp/m            xti=         0          
          n=         1                   cj=0.000927696 f/m^2    
         mj=   0.35577                   pb=  0.815796 V        
       cjsw=3.18106e-10 f/m             mjsw=       0.1          
        php=  0.815796 V               pbsw (not used)           
     cjgate=3.18106e-10 f/m            cjswg (not used)           
      mjswg (not used)                 pbswg (not used)           
      lketa= -0.0129496               wketa=-0.000764319         
      pvth0= -0.0252481                 pk2=-0.00480537         
      prdsw=   -96.4503         
***************************************************************************
***        model parameters  model name:   0:pch      model type:pmos   ***
***************************************************************************

  *** general parameters ***
   deriv=   0.           

  ***  level 49  model parameters  ***

     hspver=       98.2               level=         49         
    version=        3.1            paramchk=          0         
     apwarn=          1             binUnit=          1         
     capMod=          2               xpart=          1         
     mobMod=          1              nqsMod=          0         
        elm=          5            sfvtflag=          0         
        tox=    7.6e-09 meter            xj=    1.5e-07 meter   
    binflag=          0                lmin=          0 meter   
       lmax=          0 meter          wmin=          0 meter   
       wmax=          0 meter          lref=          0 meter   
       wref=          0 meter          lint=4.30928e-09 meter   
       wint=5.96223e-08 meter         lmult=          1         
      wmult=          1                  ll=          0         
        lln=          1                  lw=          0         
        lwn=          1                 lwl=          0         
         wl=          0                 wln=          1         
         ww=          0                 wwn=          1         
        wwl=          0                 dwg=-1.5962e-08 m/V     
        dwb=1.37892e-08 m/V^1/2          a0=    1.12101         
        ags=   0.396195 V^-1             b0=6.49314e-07 meter   
         b1=4.27322e-06 meter          keta=   -0.00927 V^-1    
       voff=      -0.15 V             ngate=          0 cm^-3   
        vbx=          0 V               vbm=         -3 V       
         xt=   1.55e-07 meter          vth0=  -0.663659 V       
        nch=    1.7e+17 cm^-3          nsub=      6e+16 cm^-3   
        nlx=1.51028e-07 meter        gamma1=          0 V^-1/2  
     gamma2=          0 V^-1/2           k1=   0.456478 V^1/2   
         k2=  -0.019447                  k3=    39.3829         
        k3b=    -2.8931 V^-1             w0=2.65558e-06 meter   
       dvt0=    1.17446                dvt1=   0.763113         
       dvt2=  -0.103517 V^-1          dvt0w=          0 meter^-1
      dvt1w=    5.3e+06 meter^-1      dvt2w=     -0.032 V^-1    
       dsub=   0.243603                eta0=  0.0286461         
       etab=          0 V^-1             u0=    151.331 cm^2/V/sec
         ua=2.06121e-10 m/V              ub=1.82348e-18 (m/V)^2 
         uc=-8.97321e-12 V^-1           vsat=      99156 m/sec   
         a1=          0 v^-1             a2=          1         
      delta=       0.01 V              rdsw=    2307.25 ohm-um  
       prwg=     -0.001 V^-1           prwb=          0 V^-1/2  
         wr=          1                pclm=    4.35975         
    pdiblc1=0.000744702             pdiblc2= 0.00425607         
    pdiblcb=          0 V^-1         pscbe1=1.34762e+10 V/m     
     pscbe2=      5e-09 V/m           drout=  0.0120292         
       pvag=    3.66979             nfactor=          2         
       cdsc=0.000659308 f/m^2         cdscb=          0 f/V/m^2 
      cdscd=          0 f/V/m^2         cit=          0 f/m^2   
     alpha0=          0 m/V           beta0=         30 V       
        dlc=4.30928e-09 meter           dwc=5.96223e-08 meter   
        clc=      1e-07 meter           cle=        0.6         
       cgso=  2.307e-10 f/m            cgdo=  2.307e-10 f/m     
       cgbo=          0 f/m            cgsl=          0 f/m     
       cgdl=          0 f/m          ckappa=        0.6         
         cf=8.75406e-11 f/m            tnom=     300.15 K       
        kt1=      -0.11 V              kt1l=          0         
        kt2=      0.022                 ute=       -1.5         
        ua1=   4.31e-09 m/V             ub1=  -7.61e-18 (m/V)^2 
        uc1=   -5.6e-11 m/V^2            at=      33000 m/s     
        prt=          0         
        using Berkeley noise model       noiMod=          1         
       noia=    9.9e+18                noib=       2400         
       noic=    1.4e-12                  em=    4.1e+07         
         ef=          1                  af=          1         
         kf=          0         
        using Hspice diodes            using ACM 
        acm=         0                 hdif=         0 meter    
       ldif=         0 meter             js=         0 amp/m^2  
        jsw=         0 amp/m            xti=         0          
          n=         1                   cj=0.00142028 f/m^2    
         mj=  0.549088                   pb=      0.99 V        
       cjsw=4.77361e-10 f/m             mjsw=  0.199742          
        php=      0.99 V               pbsw (not used)           
     cjgate=4.77361e-10 f/m            cjswg (not used)           
      mjswg (not used)                 pbswg (not used)           
      lketa= 0.00602797               wketa= -0.0101398         
      pvth0= 0.00658707                 pk2= 0.00101159         
      prdsw=   -93.5582         

**warning** both nodes of source     0:vgnd            
            are connected together

******  Star-HSPICE  --    98.2  (980711)  03:23:17  01/09/2000  solaris      
******  
*      $id$                                                                   
 ******  circuit element summary          tnom=  25.000 temp=  25.000         
******  


**** capacitors
 
element name       0:cloadr      0:cloadf      1:c1          1:c2      
node1              0:outputr     0:outputf     0:vdd         0:inputr  
node2              0:0           0:0           0:0           0:0       
model                                                                  
cap eff           25.0000f      25.0000f      10.0000f      10.0000f   
tc1                0.            0.            0.            0.        
tc2                0.            0.            0.            0.        
scale              1.0000        1.0000        1.0000        1.0000    
ic                 0.            0.            0.            0.        
m                  1.0000        1.0000        1.0000        1.0000    
w                  0.            0.            0.            0.        
l                  0.            0.            0.            0.        
temp              25.0000       25.0000       25.0000       25.0000    
 
element name       1:c3          2:c1          2:c2          2:c3      
node1              0:outputf     0:vdd         0:inputf      0:outputr 
node2              0:0           0:0           0:0           0:0       
model                                                                  
cap eff           20.0000f      10.0000f      10.0000f      20.0000f   
tc1                0.            0.            0.            0.        
tc2                0.            0.            0.            0.        
scale              1.0000        1.0000        1.0000        1.0000    
ic                 0.            0.            0.            0.        
m                  1.0000        1.0000        1.0000        1.0000    
w                  0.            0.            0.            0.        
l                  0.            0.            0.            0.        
temp              25.0000       25.0000       25.0000       25.0000    


**** independent sources

    name         node1        node2      dc volt    ac mag    ac phase    type
   0:vvdd       0:vdd        0:0           2.9700     0.         0.      dc   
   0:vinr       0:vinr       0:0           0.         0.         0.      exp  
            initial value     0.     
            pulsed value.     2.9700 
            rise delay...     1.0000n
            rise tau.....    18.2049p
            fall delay...    19.2049n
            fall tau.....    18.2049p

   0:vinf       0:vinf       0:0           2.9700     0.         0.      exp  
            initial value     2.9700 
            pulsed value.     0.     
            rise delay...     1.0000n
            rise tau.....    18.2049p
            fall delay...    19.2049n
            fall tau.....    18.2049p

   0:vshortr    0:vinr       0:inputr      0.         0.         0.      dc   
   0:vshortf    0:vinf       0:inputf      0.         0.         0.      dc   


**** mosfets
 
element name       1:mn0         1:mn1         1:mp2         1:mp3     
drain              0:outputf     1:n0          0:outputf     0:outputf 
gate               0:vdd         0:inputr      0:vdd         0:inputr  
source             1:n0          0:0           0:vdd         0:vdd     
bulk               0:0           0:0           0:vdd         0:vdd     
model              0:nch         0:nch         0:pch         0:pch     
w eff             19.8563u      19.8563u      19.8808u      19.8808u   
l eff            346.5290n     346.5290n     341.3814n     341.3814n   
rd eff             0.            0.            0.            0.        
rs eff             0.            0.            0.            0.        
cdsat              0.            0.            0.            0.        
cssat              0.            0.            0.            0.        
[...]
      dvt1w=    5.3e+06 meter^-1      dvt2w=     -0.032 V^-1    
       dsub=  0.0257957                eta0= 0.00212832         
       etab=          0 V^-1             u0=    444.938 cm^2/V/sec
         ua=2.92128e-10 m/V              ub=1.77328e-18 (m/V)^2 
         uc= 7.0679e-11 V^-1           vsat=     113078 m/sec   
         a1=          0 v^-1             a2=          1         
      delta=       0.01 V              rdsw=     925.27 ohm-um  
       prwg=     -0.001 V^-1           prwb=     -0.001 V^-1/2  
         wr=          1                pclm=   0.676631         
    pdiblc1=          1             pdiblc2= 0.00178742         
    pdiblcb=          0 V^-1         pscbe1=6.97348e+09 V/m     
     pscbe2=1.46235e-07 V/m           drout=   0.787354         
       pvag=       0.05             nfactor=   0.571097         
       cdsc=0.000860723 f/m^2         cdscb=          0 f/V/m^2 
      cdscd=          0 f/V/m^2         cit=          0 f/m^2   
     alpha0=          0 m/V           beta0=         30 V       
        dlc=1.73552e-09 meter           dwc=7.18696e-08 meter   
        clc=      1e-07 meter           cle=        0.6         
       cgso=   1.96e-10 f/m            cgdo=   1.96e-10 f/m     
       cgbo=          0 f/m            cgsl=          0 f/m     
       cgdl=          0 f/m          ckappa=        0.6         
         cf=8.75406e-11 f/m            tnom=     300.15 K       
        kt1=      -0.11 V              kt1l=          0         
        kt2=      0.022                 ute=       -1.5         
        ua1=   4.31e-09 m/V             ub1=  -7.61e-18 (m/V)^2 
        uc1=   -5.6e-11 m/V^2            at=      33000 m/s     
        prt=          0         
        using Berkeley noise model       noiMod=          1         
       noia=      1e+20                noib=      50000         
       noic=   -1.4e-12                  em=    4.1e+07         
         ef=          1                  af=          1         
         kf=          0         
        using Hspice diodes            using ACM 
        acm=         0                 hdif=         0 meter    
       ldif=         0 meter             js=         0 amp/m^2  
        jsw=         0 amp/m            xti=         0          
          n=         1                   cj=0.000927696 f/m^2    
         mj=   0.35577                   pb=  0.815796 V        
       cjsw=3.18106e-10 f/m             mjsw=       0.1          
        php=  0.815796 V               pbsw (not used)           
     cjgate=3.18106e-10 f/m            cjswg (not used)           
      mjswg (not used)                 pbswg (not used)           
      lketa= -0.0129496               wketa=-0.000764319         
      pvth0= -0.0252481                 pk2=-0.00480537         
      prdsw=   -96.4503         
***************************************************************************
***        model parameters  model name:   0:pch      model type:pmos   ***
***************************************************************************

  *** general parameters ***
   deriv=   0.           

  ***  level 49  model parameters  ***

     hspver=       98.2               level=         49         
    version=        3.1            paramchk=          0         
     apwarn=          1             binUnit=          1         
     capMod=          2               xpart=          1         
     mobMod=          1              nqsMod=          0         
        elm=          5            sfvtflag=          0         
        tox=    7.6e-09 meter            xj=    1.5e-07 meter   
    binflag=          0                lmin=          0 meter   
       lmax=          0 meter          wmin=          0 meter   
       wmax=          0 meter          lref=          0 meter   
       wref=          0 meter          lint=4.30928e-09 meter   
       wint=5.96223e-08 meter         lmult=          1         
      wmult=          1                  ll=          0         
        lln=          1                  lw=          0         
        lwn=          1                 lwl=          0         
         wl=          0                 wln=          1         
         ww=          0                 wwn=          1         
        wwl=          0                 dwg=-1.5962e-08 m/V     
        dwb=1.37892e-08 m/V^1/2          a0=    1.12101         
        ags=   0.396195 V^-1             b0=6.49314e-07 meter   
         b1=4.27322e-06 meter          keta=   -0.00927 V^-1    
       voff=      -0.15 V             ngate=          0 cm^-3   
        vbx=          0 V               vbm=         -3 V       
         xt=   1.55e-07 meter          vth0=  -0.663659 V       
        nch=    1.7e+17 cm^-3          nsub=      6e+16 cm^-3   
        nlx=1.51028e-07 meter        gamma1=          0 V^-1/2  
     gamma2=          0 V^-1/2           k1=   0.456478 V^1/2   
         k2=  -0.019447                  k3=    39.3829         
        k3b=    -2.8931 V^-1             w0=2.65558e-06 meter   
       dvt0=    1.17446                dvt1=   0.763113         
       dvt2=  -0.103517 V^-1          dvt0w=          0 meter^-1
      dvt1w=    5.3e+06 meter^-1      dvt2w=     -0.032 V^-1    
       dsub=   0.243603                eta0=  0.0286461         
       etab=          0 V^-1             u0=    151.331 cm^2/V/sec
         ua=2.06121e-10 m/V              ub=1.82348e-18 (m/V)^2 
         uc=-8.97321e-12 V^-1           vsat=      99156 m/sec   
         a1=          0 v^-1             a2=          1         
      delta=       0.01 V              rdsw=    2307.25 ohm-um  
       prwg=     -0.001 V^-1           prwb=          0 V^-1/2  
         wr=          1                pclm=    4.35975         
    pdiblc1=0.000744702             pdiblc2= 0.00425607         
    pdiblcb=          0 V^-1         pscbe1=1.34762e+10 V/m     
     pscbe2=      5e-09 V/m           drout=  0.0120292         
       pvag=    3.66979             nfactor=          2         
       cdsc=0.000659308 f/m^2         cdscb=          0 f/V/m^2 
      cdscd=          0 f/V/m^2         cit=          0 f/m^2   
     alpha0=          0 m/V           beta0=         30 V       
        dlc=4.30928e-09 meter           dwc=5.96223e-08 meter   
        clc=      1e-07 meter           cle=        0.6         
       cgso=  2.307e-10 f/m            cgdo=  2.307e-10 f/m     
       cgbo=          0 f/m            cgsl=          0 f/m     
       cgdl=          0 f/m          ckappa=        0.6         
         cf=8.75406e-11 f/m            tnom=     300.15 K       
        kt1=      -0.11 V              kt1l=          0         
        kt2=      0.022                 ute=       -1.5         
        ua1=   4.31e-09 m/V             ub1=  -7.61e-18 (m/V)^2 
        uc1=   -5.6e-11 m/V^2            at=      33000 m/s     
        prt=          0         
        using Berkeley noise model       noiMod=          1         
       noia=    9.9e+18                noib=       2400         
       noic=    1.4e-12                  em=    4.1e+07         
         ef=          1                  af=          1         
         kf=          0         
        using Hspice diodes            using ACM 
        acm=         0                 hdif=         0 meter    
       ldif=         0 meter             js=         0 amp/m^2  
        jsw=         0 amp/m            xti=         0          
          n=         1                   cj=0.00142028 f/m^2    
         mj=  0.549088                   pb=      0.99 V        
       cjsw=4.77361e-10 f/m             mjsw=  0.199742          
        php=      0.99 V               pbsw (not used)           
     cjgate=4.77361e-10 f/m            cjswg (not used)           
      mjswg (not used)                 pbswg (not used)           
      lketa= 0.00602797               wketa= -0.0101398         
      pvth0= 0.00658707                 pk2= 0.00101159         
      prdsw=   -93.5582         

**warning** both nodes of source     0:vgnd            
            are connected together

******  Star-HSPICE  --    98.2  (980711)  03:23:17  01/09/2000  solaris      
******  
*      $id$                                                                   
 ******  circuit element summary          tnom=  25.000 temp=  25.000         
******  


**** capacitors
 
element name       0:cloadr      0:cloadf      1:c1          1:c2      
node1              0:outputr     0:outputf     0:vdd         0:inputr  
node2              0:0           0:0           0:0           0:0       
model                                                                  
cap eff          120.0000f     120.0000f      10.0000f      10.0000f   
tc1                0.            0.            0.            0.        
tc2                0.            0.            0.            0.        
scale              1.0000        1.0000        1.0000        1.0000    
ic                 0.            0.            0.            0.        
m                  1.0000        1.0000        1.0000        1.0000    
w                  0.            0.            0.            0.        
l                  0.            0.            0.            0.        
temp              25.0000       25.0000       25.0000       25.0000    
 
element name       1:c3          2:c1          2:c2          2:c3      
node1              0:outputf     0:vdd         0:inputf      0:outputr 
node2              0:0           0:0           0:0           0:0       
model                                                                  
cap eff           20.0000f      10.0000f      10.0000f      20.0000f   
tc1                0.            0.            0.            0.        
tc2                0.            0.            0.            0.        
scale              1.0000        1.0000        1.0000        1.0000    
ic                 0.            0.            0.            0.        
m                  1.0000        1.0000        1.0000        1.0000    
w                  0.            0.            0.            0.        
l                  0.            0.            0.            0.        
temp              25.0000       25.0000       25.0000       25.0000    


**** independent sources

    name         node1        node2      dc volt    ac mag    ac phase    type
   0:vvdd       0:vdd        0:0           2.9700     0.         0.      dc   
   0:vinr       0:vinr       0:0           0.         0.         0.      exp  
            initial value     0.     
            pulsed value.     2.9700 
            rise delay...     1.0000n
            rise tau.....   145.6374p
            fall delay...   146.6374n
            fall tau.....   145.6374p

   0:vinf       0:vinf       0:0           2.9700     0.         0.      exp  
            initial value     2.9700 
            pulsed value.     0.     
            rise delay...     1.0000n
            rise tau.....   145.6374p
            fall delay...   146.6374n
            fall tau.....   145.6374p

   0:vshortr    0:vinr       0:inputr      0.         0.         0.      dc   
   0:vshortf    0:vinf       0:inputf      0.         0.         0.      dc   


**** mosfets
 
element name       1:mn0         1:mn1         1:mp2         1:mp3     
drain              0:outputf     1:n0          0:outputf     0:outputf 
gate               0:vdd         0:inputr      0:vdd         0:inputr  
source             1:n0          0:0           0:vdd         0:vdd     
bulk               0:0           0:0           0:vdd         0:vdd     
model              0:nch         0:nch         0:pch         0:pch     
w eff             19.8563u      19.8563u      19.8808u      19.8808u   
l eff            346.5290n     346.5290n     341.3814n     341.3814n   
rd eff             0.            0.            0.            0.        
rs eff             0.            0.            0.            0.        
cdsat              0.            0.            0.            0.        
cssat              0.            0.            0.            0.        
capbd              0.            0.            0.            0.        
capbs              0.            0.            0.            0.        
aic                                                                    
 
element name       2:mn0         2:mn1         2:mp2         2:mp3     
drain              0:outputr     2:n0          0:outputr     0:outputr 
gate               0:vdd         0:inputf      0:vdd         0:inputf  
source             2:n0          0:0           0:vdd         0:vdd     
bulk               0:0           0:0           0:vdd         0:vdd     
model              0:nch         0:nch         0:pch         0:pch     
w eff             19.8563u      19.8563u      19.8808u      19.8808u   
l eff            346.5290n     346.5290n     341.3814n     341.3814n   
rd eff             0.            0.            0.            0.        
rs eff             0.            0.            0.            0.        
cdsat              0.            0.            0.            0.        
cssat              0.            0.            0.            0.        
capbd              0.            0.            0.            0.        
capbs              0.            0.            0.            0.        
aic                                                                    


**** subcircuit calls
   name        subcircuit         external nodes


    0:xdut0    nand2_4x        0:vdd         0:inputr      0:outputf 
    0:xdut1    nand2_4x        0:vdd         0:inputf      0:outputr 
******  Star-HSPICE  --    98.2  (980711)  03:23:17  01/09/2000  solaris      
******  
*      $id$                                                                   
 ******  option summary                                                       
******  

general information options-
  acct= 1        aspec= 0        spice= 0           co= 78
cptime=  10.00x epsmin= 1.0e-28 expmax=  80.00    genk= 1
ingold= 0       itrprt= 0         klim=  10.00m limtim=      2
  list= 1         node= 0        nomod= 0       nopage= 1
 notop= 0       numdgt= 4          nxx= 0         opts= 1
  plim= 0         post= 1        scale=   1.00u  scalm=   1.00 
  tnom=  25.00  badchr= 0        acout=   1.00  lennam= 8
nowarn= 0       autost= 1      measout= 1      measdgt= 4
noelck= 0       unwrap= 0        h9007= 0      icsweep= 1
parhie=global   bkpsiz=   5000

diagno= 0      warnlim=     1  pathnum=     0   optlst= 0
limpts=  2001  timeres=   1.00p resmin=  10.00u vfloor= 500.00n
 expli=   0.     bytol=  50.00u slopetol= 500.00m


mosfet default options -
 defad=   0.     defas=   0.      defl= 100.00u defnrd=   0.   
defnrs=   0.     defpd=   0.     defps=   0.      defw= 100.00u
    wl= 0        k2lim= 0

diode level 3 default option -
diorscal= 0

dc solution controls -
  absh=   0.      absi=   1.00n absmos=   1.00u absvdc=  50.00u
 dccap= 0        dcfor=      0  dchold=      1  dcstep=   0.   
    di= 100.00      dv=   1.00k   gmax= 100.00    gmin=   1.00p
gmindc=   1.00p gshunt=   0.    cshunt=   0.     cshdc=   1.00p
 gramp= 0     converge= 0         itl1=    200    itl2=     50
newtol= 0        nopiv= 0        pivot=10      kcltest= 0
pivref= 100.00x pivrel= 100.00u pivtol=   1.00f   relh=  50.00m
  reli=  10.00m relmos=  50.00m relvdc=   1.00m rmaxdc= 100.00 
maxamp=   0.      dcon= 0          off= 0       captab= 0


  search paths for subcircuit references 
 path 1 = 
 path 2 =/cad/avanti/98.2/parts/ad 
 path 3 =/cad/avanti/98.2/parts/behave 
 path 4 =/cad/avanti/98.2/parts/bjt 
 path 5 =/cad/avanti/98.2/parts/burr_brn 
 path 6 =/cad/avanti/98.2/parts/comlinear 
 path 7 =/cad/avanti/98.2/parts/dio 
 path 8 =/cad/avanti/98.2/parts/fet 
 path 9 =/cad/avanti/98.2/parts/lin_tech 
 path10 =/cad/avanti/98.2/parts/pci 
 path11 =/cad/avanti/98.2/parts/signet 
 path12 =/cad/avanti/98.2/parts/ti 
 path13 =/cad/avanti/98.2/parts/tline 
 path14 =/cad/avanti/98.2/parts/xilinx 
 path15 =/cad/avanti/98.2/parts 

transient analysis controls -
  absv=  50.00u   relv=   1.00m
absvar= 500.00m chgtol=   1.00f  cvtol= 200.00m   dcap= 2
delmax= 240.00p     fs= 250.00m     ft= 250.00m   imax=      8
  imin=      3    itl5=      0  lvltim=   2         mu= 500.00m
maxord= 2       method=gear       relq=   2.00m relvar= 300.00m
  rmin=   1.00n   rmax=   2.00   trtol=   7.00  bypass=   0.   
  fast= 0       interp= 0         dvtr=   1.00k   dvdt= 3
accurate= 0      mbypass=   1.00 
 Opening plot unit= 15
file=./nand2_4x.in1.out.ld_0.pat                                              

******  Star-HSPICE  --    98.2  (980711)  03:23:17  01/09/2000  solaris      
******  
*      $id$                                                                   
 ******  temperature-adjusted values      tnom=  25.000 temp= 100.000         
******  

constants  - temp         kt           vt           gapsi        ni
            373.1500     5.152e-21     32.1547m      1.0940     1.934e+18 

*** capacitors
   name        eff val



*** mosfet element parameters
name           rd eff   rs eff   cdsat    cssat     vto      beta


   1:mn0         0.       0.       0.       0.     492.78m   11.27m
   1:mn1         0.       0.       0.       0.     492.78m   11.27m
   1:mp2         0.       0.       0.       0.    -662.69m    4.77m
   1:mp3         0.       0.       0.       0.    -662.69m    4.77m
   2:mn0         0.       0.       0.       0.     492.78m   11.27m
   2:mn1         0.       0.       0.       0.     492.78m   11.27m
   2:mp2         0.       0.       0.       0.    -662.69m    4.77m
   2:mp3         0.       0.       0.       0.    -662.69m    4.77m
******  Star-HSPICE  --    98.2  (980711)  03:23:17  01/09/2000  solaris      
******  
*      $id$                                                                   
 ******  operating point information      tnom=  25.000 temp= 100.000         
******  
***** operating point status is voltage   simulation time is     0.     
   node    =voltage      node    =voltage      node    =voltage


+0:inputf  =   2.9700  0:inputr  =   0.      0:outputf =   2.9700 
+0:outputr =  21.1218n 0:vdd     =   2.9700  0:vinf    =   2.9700 
+0:vinr    =   0.      1:n0      =   2.4544  2:n0      =  10.5609n



 Opening plot unit= 15
file=./nand2_4x.in1.out.ld_0.trt                                              

******  
*      $id$                                                                   
 ******  transient analysis               tnom=  25.000 temp= 100.000         
******  
  tplh            =  2.0436E-10  targ=  1.3054E-09   trig=  1.1010E-09
  tphl            =  1.0886E-10  targ=  1.2099E-09   trig=  1.1010E-09
  risetime        =  2.8378E-10  targ=  1.4604E-09   trig=  1.1766E-09
  falltime        =  1.8280E-10  targ=  1.3224E-09   trig=  1.1396E-09
  inputrise       =  3.1999E-10  targ=  1.3354E-09   trig=  1.0154E-09
  inputfall       =  3.1999E-10  targ=  1.3354E-09   trig=  1.0154E-09

         ***** job concluded
******  Star-HSPICE  --    98.2  (980711)  03:23:17  01/09/2000  solaris      
******  
*      $id$                                                                   
 ******  job statistics summary           tnom=  25.000 temp= 100.000         
******  

          total memory used        170 kbytes

 # nodes =    10 # elements=    21
 # diodes=     0 # bjts    =     0 # jfets   =     0 # mosfets =     8

    analysis      time      # points  tot. iter  conv.iter

    op point          0.01         1        16
    transient         0.13      2401       321       157 rev=    2
    readin            0.07
    errchk            0.02
    setup             0.00
    output            0.00
          total cpu time          0.23 seconds
              job started at  03:23:17  01/09/2000
              job ended   at  03:23:26  01/09/2000


lic: Release  token(s) 
HSPICE job nand2_4x.in1.out.ld_0.sp completed.
Sun Jan  9 03:23:26 PST 2000
