Using: /cad/avanti/98.2/sol4/hspice
******  Star-HSPICE  --    98.2  (980711)  03:23:03  01/09/2000  solaris      
 Copyright (C) 1985-1997 by Avant! Corporation.                               
 Unpublished-rights reserved under US copyright laws.
 This program is protected by law and is subject to the 
 terms and conditions of the license agreement found in:
   /cad/avanti/98.2/license.txt
 Use of this program is your acceptance to be bound by this 
 license agreement. Star-HSPICE is the trademark of 
 Avant! Corporation.
 Input File: nand2_2x.in1.ic_1.sp                                              
lic:  
lic: FLEXlm:v5.12  USER:ryu  HOSTNAME:encina  HOSTID:80a7396e  PID:6908 
lic: Using FLEXlm license file: 
lic: /cad/avanti/98.2/license.dat 
lic: Checkout hspice;  Encryption code: 5C3400918DF1E79DC274 
lic: License/Maintenance for hspice will expire on 26-mar-2000/2000.100 
lic: 1(in_use)/1 FLOATING license(s) on SERVER wireless 
lic:   
Init: read install configuration file: /cad/avanti/98.2/meta.cfg
Init: hspice initialization file: /cad/avanti/98.2/hspice.ini
******  
*      $id$                                                                   
                                                                              
******  
* reading file:  /cad/avanti/98.2/hspice.ini
 
*      do not edit.  this file generated automagically.
*      created: sun jan  9  3:23:03 us/pacific 2000
*      user: ryu
 
*      char:   input capacitance characterization
*      input:  'in1'
 
*--- setup ---------------------------------------------------
.include '/people/ryu/src/autochar-1.5.5/tech/tsmc35/include/ttlh.sp'
*      $id: ttlh,v 1.4 1999/01/19 08:15:10 ryu exp ryu $
 
*      copyright (c) 1999 robert k. yu
*      email: robert@yu.org
 
*      this file is part of autochar.
 
*      autochar is free software; you can redistribute it and/or modify
*      it under the terms of the gnu general public license as published by
*      the free software foundation; either version 2, or (at your option)
*      any later version.
 
*      autochar is distributed in the hope that it will be useful,
*      but without any warranty; without even the implied warranty of
*      merchantability or fitness for a particular purpose.  see the
*      gnu general public license for more details.
 
*      you should have received a copy of the gnu general public license
*      along with autochar; see the file copying.  if not, write to the
*      free software foundation, inc., 59 temple place - suite 330,
*      boston, ma 02111-1307, usa.
 
 
*      sample hspice include file to read
*      in hspice models, library, and conditions.
 
*      ttlh :=
*          t ypical n
*          t ypical p
*          l ow vdd
*          h igh temperature
 
.lib     /people/ryu/src/autochar-1.5.5/tech/tsmc35/lib/define.sp defaults
.param
+      trise   = 200ps
+      tfall   = 200ps
+      period  = 6ns
+      pwidth  = 3ns
 
.options
+      scale   = 1.0e-6
 
.endl
.lib     /people/ryu/src/autochar-1.5.5/tech/tsmc35/lib/define.sp low_voltage
.param
+      vhigh = '3.3*0.9'
+      vlow = 0
+      vmidpoint = '(vhigh+vlow)/2'
.endl
.lib    /people/ryu/src/autochar-1.5.5/tech/tsmc35/lib/define.sp high_temp
.temp 100
.endl
.lib     /people/ryu/src/autochar-1.5.5/tech/tsmc35/lib/define.sp supplies
vvdd vdd 0 dc vhigh
vgnd gnd 0 dc 0
.global vdd gnd
.endl
 
.include /people/ryu/src/autochar-1.5.5/tech/tsmc35/lib/models.sp
*  n88y spice bsim3 version 3.1 (hspice level 49) parameters
 
* date: oct 30/98
* lot: n88y                  waf: 11
* temperature_parameters=default
.model nch nmos (                                level   = 49
+version = 3.1            tnom    = 27             tox     = 7.6e-9
+xj      = 1.5e-7         nch     = 1.7e17         vth0    = 0.4964448
+k1      = 0.5307769      k2      = 0.0199705      k3      = 0.2963637
+k3b     = 0.2012165      w0      = 2.836319e-6    nlx     = 2.894802e-7
+dvt0w   = 0              dvt1w   = 5.3e6          dvt2w   = -0.032
+dvt0    = 0.112017       dvt1    = 0.2453972      dvt2    = -0.171915
+u0      = 444.9381976    ua      = 2.921284e-10   ub      = 1.773281e-18
+uc      = 7.067896e-11   vsat    = 1.130785e5     a0      = 1.1356246
+ags     = 0.2810374      b0      = 2.844393e-7    b1      = 5e-6
+keta    = -7.8181e-3     a1      = 0              a2      = 1
+rdsw    = 925.2701982    prwg    = -1e-3          prwb    = -1e-3
+wr      = 1              wint    = 7.186965e-8    lint    = 1.735515e-9
+xl      = 0              xw      = 0              dwg     = -1.712973e-8
+dwb     = 5.851691e-9    voff    = -0.132935      nfactor = 0.5710974
+cit     = 0              cdsc    = 8.607229e-4    cdscd   = 0
+cdscb   = 0              eta0    = 2.128321e-3    etab    = 0
+dsub    = 0.0257957      pclm    = 0.6766314      pdiblc1 = 1
+pdiblc2 = 1.787424e-3    pdiblcb = 0              drout   = 0.7873539
+pscbe1  = 6.973485e9     pscbe2  = 1.46235e-7     pvag    = 0.05
+delta   = 0.01           mobmod  = 1              prt     = 0
+ute     = -1.5           kt1     = -0.11          kt1l    = 0
+kt2     = 0.022          ua1     = 4.31e-9        ub1     = -7.61e-18
+uc1     = -5.6e-11       at      = 3.3e4          wl      = 0
+wln     = 1              ww      = 0              wwn     = 1
+wwl     = 0              ll      = 0              lln     = 1
+lw      = 0              lwn     = 1              lwl     = 0
+capmod  = 2              cgdo    = 1.96e-10       cgso    = 1.96e-10
+cgbo    = 0              cj      = 9.276962e-4    pb      = 0.8157962
+mj      = 0.3557696      cjsw    = 3.181055e-10   pbsw    = 0.6869149
+mjsw    = 0.1            pvth0   = -0.0252481     prdsw   = -96.4502805
+pk2     = -4.805372e-3   wketa   = -7.643187e-4   lketa   = -0.0129496      )
*
.model pch pmos (                                level   = 49
+version = 3.1            tnom    = 27             tox     = 7.6e-9
+xj      = 1.5e-7         nch     = 1.7e17         vth0    = -0.6636594
+k1      = 0.4564781      k2      = -0.019447      k3      = 39.382919
+k3b     = -2.8930965     w0      = 2.655585e-6    nlx     = 1.51028e-7
+dvt0w   = 0              dvt1w   = 5.3e6          dvt2w   = -0.032
+dvt0    = 1.1744581      dvt1    = 0.7631128      dvt2    = -0.1035171
+u0      = 151.3305606    ua      = 2.061211e-10   ub      = 1.823477e-18
+uc      = -8.97321e-12   vsat    = 9.915604e4     a0      = 1.1210053
+ags     = 0.3961954      b0      = 6.493139e-7    b1      = 4.273215e-6
+keta    = -9.27e-3       a1      = 0              a2      = 1
+rdsw    = 2.30725e3      prwg    = -1e-3          prwb    = 0
+wr      = 1              wint    = 5.962233e-8    lint    = 4.30928e-9
+xl      = 0              xw      = 0              dwg     = -1.596201e-8
+dwb     = 1.378919e-8    voff    = -0.15          nfactor = 2
+cit     = 0              cdsc    = 6.593084e-4    cdscd   = 0
+cdscb   = 0              eta0    = 0.0286461      etab    = 0
+dsub    = 0.2436027      pclm    = 4.3597508      pdiblc1 = 7.447024e-4
+pdiblc2 = 4.256073e-3    pdiblcb = 0              drout   = 0.0120292
+pscbe1  = 1.347622e10    pscbe2  = 5e-9           pvag    = 3.669793
+delta   = 0.01           mobmod  = 1              prt     = 0
+ute     = -1.5           kt1     = -0.11          kt1l    = 0
+kt2     = 0.022          ua1     = 4.31e-9        ub1     = -7.61e-18
+uc1     = -5.6e-11       at      = 3.3e4          wl      = 0
+wln     = 1              ww      = 0              wwn     = 1
+wwl     = 0              ll      = 0              lln     = 1
+lw      = 0              lwn     = 1              lwl     = 0
+capmod  = 2              cgdo    = 2.307e-10      cgso    = 2.307e-10
+cgbo    = 0              cj      = 1.420282e-3    pb      = 0.99
+mj      = 0.5490877      cjsw    = 4.773605e-10   pbsw    = 0.99
+mjsw    = 0.1997417      pvth0   = 6.58707e-3     prdsw   = -93.5582228
+pk2     = 1.011593e-3    wketa   = -0.0101398     lketa   = 6.027967e-3     )
*
.include 'nand2_2x.sp'
 
.subckt nand2_2x in0 in1 out
 
* begin port declarations
* port input in0
* port input in1
* port output out
* end port declarations
 
mn0 out in0 n0 gnd nch w=10 l=0.35
mn1 n0 in1 gnd gnd nch w=10 l=0.35
mp2 out in0 vdd vdd pch w=10 l=0.35
mp3 out in1 vdd vdd pch w=10 l=0.35
 
c1 in0 gnd 10e-15
c2 in1 gnd 10e-15
c3 out gnd 20e-15
 
.ends
.include /people/ryu/src/autochar-1.5.5/tech/tsmc35/lib/autochar.sp
*      $id: autochar.sp,v 1.1 1999/01/19 09:04:21 ryu exp $
 
*      copyright (c) 1999 robert k. yu
*      email: robert@yu.org
 
*      this file is part of autochar.
 
*      autochar is free software; you can redistribute it and/or modify
*      it under the terms of the gnu general public license as published by
*      the free software foundation; either version 2, or (at your option)
*      any later version.
 
*      autochar is distributed in the hope that it will be useful,
*      but without any warranty; without even the implied warranty of
*      merchantability or fitness for a particular purpose.  see the
*      gnu general public license for more details.
 
*      you should have received a copy of the gnu general public license
*      along with autochar; see the file copying.  if not, write to the
*      free software foundation, inc., 59 temple place - suite 330,
*      boston, ma 02111-1307, usa.
 
*      simple inverter
 
.subckt inverter in out
+      nl=0.6
+      nw=5.0
+      pl=0.6
+      pw=10.0
mn0 out in 0   0   nch l=nl w=nw
mp1 out in vdd vdd pch l=pl w=pw
.ends
 
 
*      simple buffer
.subckt buffer in out
+      nl=0.6
+      nw=5.0
+      pl=0.6
+      pw=10.0
+      taper=3
mn0 in1 in 0   0   nch l=nl w=nw
mp1 in1 in vdd vdd pch l=pl w=pw
mn2 out in1 0  0   nch l=nl w='taper*nw'
mp3 out in1 vdd        vdd pch l=pl w='taper*pw'
.ends
 
 
*      simple buffer with infinite drive
.subckt ebuffer in out
+      nl=0.6
+      nw=5.0
+      pl=0.6
+      pw=10.0
+      taper=3
mn0 in1 in 0   0   nch l=nl w=nw
mp1 in1 in vdd vdd pch l=pl w=pw
mn2 in2 in1 0  0   nch l=nl w='taper*nw'
mp3 in2 in1 vdd        vdd pch l=pl w='taper*pw'
* fo=3 load
xload1 in2 nc1 buffer m=3
* infinite drive
ebuf out 0 in2 0 +1
.ends
 
 
*      resistive 'buffer'
.subckt resbuffer in out
+      r=1k
rbuf in out r
.ends
 
 
*      short 'buffer'
.subckt shortbuf in out
vshort in out 0
.ends
 
 
*      infinite drive buffer with slew rate parameter using rc
*      input must be an ideal pulse.
*      to control the edge.
.subckt slewbuffer in out
+      rslew=1k
+      slew=slewrate           $ default from global param slewrate
+      start=slew_start        $ default from global param slew_start
+      end=slew_end            $ default from global param slew_end
.param cslew='abs(slew/(rslew*(log(start)-log(end))))'
rbuf in out1 rslew
cbuf out1 0 cslew
* infinite drive
ebuf out 0 out1 0 +1
.ends
 
.options
+      optlst  = 1
+      post    = 1
.model optmod opt
.param ceq = optcap('10ff', '1ff', '1pf')
 
*--- inputs --------------------------------------------------
vin0 in0 0 pulse (
+     '0'
+      'vhigh'
+      '1ns'
+      'trise'
+      'tfall'
+      'pwidth'
+      'period')
vin1 in1 0 pulse (
+     '0'
+      'vhigh'
+      '1ns'
+      'trise'
+      'tfall'
+      'pwidth'
+      'period')
 
*--- test circuit --------------------------------------------
xbuf0 in0 input0 buffer
xbuf1 in1 input1 buffer
xdut0
+      gnd     $ in0:i
+      input0  $ in1:i
+      out_0   $ out:o
+      nand2_2x
 
*--- loads ---------------------------------------------------
ceff input1 0 ceq
 
*--- measure -------------------------------------------------
.option autostop
.measure tran dut_r trig=v(in0) val='vhigh/2' rise=1
+      targ=v(input0) val='vhigh/2' rise=1
.measure tran dut_f trig=v(in0) val='vhigh/2' fall=1
+      targ=v(input0) val='vhigh/2' fall=1
.measure tran dut_delay param='(dut_r + dut_f)/2.0'
.measure tran cap_r trig=v(in1) val='vhigh/2' rise=1
+      targ=v(input1) val='vhigh/2' rise=1
.measure tran cap_f trig=v(in1) val='vhigh/2' fall=1
+      targ=v(input1) val='vhigh/2' fall=1
.measure tran cap_delay param='(cap_r + cap_f)/2.0'
.measure tran opterror param='abs(dut_delay - cap_delay)' goal=0
 
*--- transient -----------------------------------------------
.trans 5ps '2*period' sweep
+      optimize=optcap
+      results=opterror
+      model=optmod
 
 
* final value:
.alter
 ******  Star-HSPICE  --    98.2  (980711)  03:23:03  01/09/2000  solaris      
******  
*      $id$                                                                   
 ******  circuit name directory                                               
******  
circuit number to circuit name directory
number  circuitname                   definition        multiplier
    0 main circuit
    1 xbuf0.                          buffer             1.00 
    2 xbuf1.                          buffer             1.00 
    3 xdut0.                          nand2_2x           1.00 
 ******  Star-HSPICE  --    98.2  (980711)  03:23:03  01/09/2000  solaris      
******  
*      $id$                                                                   
 ******  mos   model parameters           tnom=  25.000 temp=  25.000         
******  
***************************************************************************
***        model parameters  model name:   0:nch      model type:nmos   ***
***************************************************************************

  *** general parameters ***
   deriv=   0.           

  ***  level 49  model parameters  ***

     hspver=       98.2               level=         49         
    version=        3.1            paramchk=          0         
     apwarn=          1             binUnit=          1         
     capMod=          2               xpart=          1         
     mobMod=          1              nqsMod=          0         
        elm=          5            sfvtflag=          0         
        tox=    7.6e-09 meter            xj=    1.5e-07 meter   
    binflag=          0                lmin=          0 meter   
       lmax=          0 meter          wmin=          0 meter   
       wmax=          0 meter          lref=          0 meter   
       wref=          0 meter          lint=1.73552e-09 meter   
       wint=7.18696e-08 meter         lmult=          1         
      wmult=          1                  ll=          0         
        lln=          1                  lw=          0         
        lwn=          1                 lwl=          0         
         wl=          0                 wln=          1         
         ww=          0                 wwn=          1         
        wwl=          0                 dwg=-1.71297e-08 m/V     
        dwb=5.85169e-09 m/V^1/2          a0=    1.13562         
        ags=   0.281037 V^-1             b0=2.84439e-07 meter   
         b1=      5e-06 meter          keta= -0.0078181 V^-1    
       voff=  -0.132935 V             ngate=          0 cm^-3   
        vbx=          0 V               vbm=         -3 V       
         xt=   1.55e-07 meter          vth0=   0.496445 V       
        nch=    1.7e+17 cm^-3          nsub=      6e+16 cm^-3   
        nlx= 2.8948e-07 meter        gamma1=          0 V^-1/2  
     gamma2=          0 V^-1/2           k1=   0.530777 V^1/2   
         k2=  0.0199705                  k3=   0.296364         
        k3b=   0.201216 V^-1             w0=2.83632e-06 meter   
       dvt0=   0.112017                dvt1=   0.245397         
       dvt2=  -0.171915 V^-1          dvt0w=          0 meter^-1
      dvt1w=    5.3e+06 meter^-1      dvt2w=     -0.032 V^-1    
       dsub=  0.0257957                eta0= 0.00212832         
       etab=          0 V^-1             u0=    444.938 cm^2/V/sec
         ua=2.92128e-10 m/V              ub=1.77328e-18 (m/V)^2 
         uc= 7.0679e-11 V^-1           vsat=     113078 m/sec   
         a1=          0 v^-1             a2=          1         
      delta=       0.01 V              rdsw=     925.27 ohm-um  
       prwg=     -0.001 V^-1           prwb=     -0.001 V^-1/2  
         wr=          1                pclm=   0.676631         
    pdiblc1=          1             pdiblc2= 0.00178742         
    pdiblcb=          0 V^-1         pscbe1=6.97348e+09 V/m     
     pscbe2=1.46235e-07 V/m           drout=   0.787354         
       pvag=       0.05             nfactor=   0.571097         
       cdsc=0.000860723 f/m^2         cdscb=          0 f/V/m^2 
      cdscd=          0 f/V/m^2         cit=          0 f/m^2   
     alpha0=          0 m/V           beta0=         30 V       
        dlc=1.73552e-09 meter           dwc=7.18696e-08 meter   
        clc=      1e-07 meter           cle=        0.6         
       cgso=   1.96e-10 f/m            cgdo=   1.96e-10 f/m     
       cgbo=          0 f/m            cgsl=          0 f/m     
       cgdl=          0 f/m          ckappa=        0.6         
         cf=8.75406e-11 f/m            tnom=     300.15 K       
        kt1=      -0.11 V              kt1l=          0         
        kt2=      0.022                 ute=       -1.5         
        ua1=   4.31e-09 m/V             ub1=  -7.61e-18 (m/V)^2 
        uc1=   -5.6e-11 m/V^2            at=      33000 m/s     
        prt=          0         
        using Berkeley noise model       noiMod=          1         
       noia=      1e+20                noib=      50000         
       noic=   -1.4e-12                  em=    4.1e+07         
         ef=          1                  af=          1         
         kf=          0         
        using Hspice diodes            using ACM 
        acm=         0                 hdif=         0 meter    
       ldif=         0 meter             js=         0 amp/m^2  
        jsw=         0 amp/m            xti=         0          
          n=         1                   cj=0.000927696 f/m^2    
         mj=   0.35577                   pb=  0.815796 V        
       cjsw=3.18106e-10 f/m             mjsw=       0.1          
        php=  0.815796 V               pbsw (not used)           
     cjgate=3.18106e-10 f/m            cjswg (not used)           
      mjswg (not used)                 pbswg (not used)           
      lketa= -0.0129496               wketa=-0.000764319         
      pvth0= -0.0252481                 pk2=-0.00480537         
      prdsw=   -96.4503         
***************************************************************************
***        model parameters  model name:   0:pch      model type:pmos   ***
***************************************************************************

  *** general parameters ***
   deriv=   0.           

  ***  level 49  model parameters  ***

     hspver=       98.2               level=         49         
    version=        3.1            paramchk=          0         
     apwarn=          1             binUnit=          1         
     capMod=          2               xpart=          1         
     mobMod=          1              nqsMod=          0         
        elm=          5            sfvtflag=          0         
        tox=    7.6e-09 meter            xj=    1.5e-07 meter   
    binflag=          0                lmin=          0 meter   
       lmax=          0 meter          wmin=          0 meter   
       wmax=          0 meter          lref=          0 meter   
       wref=          0 meter          lint=4.30928e-09 meter   
       wint=5.96223e-08 meter         lmult=          1         
      wmult=          1                  ll=          0         
        lln=          1                  lw=          0         
        lwn=          1                 lwl=          0         
         wl=          0                 wln=          1         
         ww=          0                 wwn=          1         
        wwl=          0                 dwg=-1.5962e-08 m/V     
        dwb=1.37892e-08 m/V^1/2          a0=    1.12101         
        ags=   0.396195 V^-1             b0=6.49314e-07 meter   
         b1=4.27322e-06 meter          keta=   -0.00927 V^-1    
       voff=      -0.15 V             ngate=          0 cm^-3   
        vbx=          0 V               vbm=         -3 V       
         xt=   1.55e-07 meter          vth0=  -0.663659 V       
        nch=    1.7e+17 cm^-3          nsub=      6e+16 cm^-3   
        nlx=1.51028e-07 meter        gamma1=          0 V^-1/2  
     gamma2=          0 V^-1/2           k1=   0.456478 V^1/2   
         k2=  -0.019447                  k3=    39.3829         
        k3b=    -2.8931 V^-1             w0=2.65558e-06 meter   
       dvt0=    1.17446                dvt1=   0.763113         
       dvt2=  -0.103517 V^-1          dvt0w=          0 meter^-1
      dvt1w=    5.3e+06 meter^-1      dvt2w=     -0.032 V^-1    
       dsub=   0.243603                eta0=  0.0286461         
       etab=          0 V^-1             u0=    151.331 cm^2/V/sec
         ua=2.06121e-10 m/V              ub=1.82348e-18 (m/V)^2 
         uc=-8.97321e-12 V^-1           vsat=      99156 m/sec   
         a1=          0 v^-1             a2=          1         
      delta=       0.01 V              rdsw=    2307.25 ohm-um  
       prwg=     -0.001 V^-1           prwb=          0 V^-1/2  
         wr=          1                pclm=    4.35975         
    pdiblc1=0.000744702             pdiblc2= 0.00425607         
    pdiblcb=          0 V^-1         pscbe1=1.34762e+10 V/m     
     pscbe2=      5e-09 V/m           drout=  0.0120292         
       pvag=    3.66979             nfactor=          2         
       cdsc=0.000659308 f/m^2         cdscb=          0 f/V/m^2 
      cdscd=          0 f/V/m^2         cit=          0 f/m^2   
     alpha0=          0 m/V           beta0=         30 V       
        dlc=4.30928e-09 meter           dwc=5.96223e-08 meter   
        clc=      1e-07 meter           cle=        0.6         
       cgso=  2.307e-10 f/m            cgdo=  2.307e-10 f/m     
       cgbo=          0 f/m            cgsl=          0 f/m     
       cgdl=          0 f/m          ckappa=        0.6         
         cf=8.75406e-11 f/m            tnom=     300.15 K       
        kt1=      -0.11 V              kt1l=          0         
        kt2=      0.022                 ute=       -1.5         
        ua1=   4.31e-09 m/V             ub1=  -7.61e-18 (m/V)^2 
        uc1=   -5.6e-11 m/V^2            at=      33000 m/s     
        prt=          0         
        using Berkeley noise model       noiMod=          1         
       noia=    9.9e+18                noib=       2400         
       noic=    1.4e-12                  em=    4.1e+07         
         ef=          1                  af=          1         
         kf=          0         
        using Hspice diodes            using ACM 
        acm=         0                 hdif=         0 meter    
       ldif=         0 meter             js=         0 amp/m^2  
        jsw=         0 amp/m            xti=         0          
          n=         1                   cj=0.00142028 f/m^2    
         mj=  0.549088                   pb=      0.99 V        
       cjsw=4.77361e-10 f/m             mjsw=  0.199742          
        php=      0.99 V               pbsw (not used)           
     cjgate=4.77361e-10 f/m            cjswg (not used)           
      mjswg (not used)                 pbswg (not used)           
      lketa= 0.00602797               wketa= -0.0101398         
      pvth0= 0.00658707                 pk2= 0.00101159         
      prdsw=   -93.5582         
 ******  Star-HSPICE  --    98.2  (980711)  03:23:03  01/09/2000  solaris      
******  
*      $id$                                                                   
 ******  optimize model parameters        tnom=  25.000 temp=  25.000         
******  
*********************************
***  model name:   0:optmod  ****
*********************************

    names  values   units     names  values   units     names  values   units
    -----  ------   -----     -----  ------   -----     -----  ------   -----
   level=   1.00             relin=   1.00m           relout=   1.00m        
    grad=   1.00u            close=   1.00               cut=   2.00         
     max= 600.00k           itropt=  20.00            cendif=   1.00n        
  difsiz=   1.00m           parmin= 100.00m        
 

**warning** both nodes of source     0:vgnd            
            are connected together


**warning** both nodes of capacitor     3:c1              
            are connected together



Warning: Pd = 0 is less than W.
Model:    0:nch
W = 5e-06, L = 6e-07

 Opening plot unit= 15
file=./nand2_2x.in1.ic_1.pa0                                                  



entering lmopt 
  parm names init guess, lower, upper bounds
ceq                 1.0000E-14    1.0000E-15    1.0000E-12        0.    

calculate gradient by finite differences  isw= 1
lmopt--one iteration completed 
iter   =   1           ieval  =   3
ssq     =   406.126     m       =  0.250000    
ssqold  =   1396.14     gradient=   894.021    

parameter limiting=   1.000    
parameter        newvalue   delx       oldvalue   %chg       %totchg

ceq              2.5616E-14-1.5616E-14 1.0000E-14  60.96     -156.2    

parameter       sensitivity %norm-sen  gradient 

ceq              1.1963E+15  100.0    -4.4701E+16


  broyden update ijac=  1
lmopt--one iteration completed 
iter   =   2           ieval  =   4
ssq     =   36.6420     m       =  6.250000E-02
ssqold  =   406.126     gradient=   444.243    

parameter limiting=   1.000    
parameter        newvalue   delx       oldvalue   %chg       %totchg

ceq              4.0244E-14-1.4627E-14 2.5616E-14  36.35     -302.4    

parameter       sensitivity %norm-sen  gradient 

ceq              1.1022E+15  100.0    -2.2212E+16

     newerr      olderr
    -6.053        -20.15    


calculate gradient by finite differences  isw= 1
lmopt--one iteration completed 
iter   =   3           ieval  =   6
ssq     =  0.433114     m       =  1.562500E-02
ssqold  =   36.6420     gradient=   116.006    

parameter limiting=   1.000    
parameter        newvalue   delx       oldvalue   %chg       %totchg

ceq              4.6189E-14-5.9456E-15 4.0244E-14  12.87     -361.9    

parameter       sensitivity %norm-sen  gradient 

ceq              9.5821E+14  100.0    -5.8003E+15

     newerr      olderr
   -0.6581        -6.053    


  broyden update ijac=  1
lmopt--one iteration completed 
iter   =   4           ieval  =   7
ssq     =  2.184793E-03 m       =  3.906250E-03
ssqold  =  0.433114     gradient=   11.9436    

parameter limiting=   1.000    
parameter        newvalue   delx       oldvalue   %chg       %totchg

ceq              4.6903E-14-7.1411E-16 4.6189E-14  1.523     -369.0    

parameter       sensitivity %norm-sen  gradient 

ceq              9.0741E+14  100.0    -5.9718E+14

     newerr      olderr
   -4.6742E-02   -0.6581    


calculate gradient by finite differences  isw= 1
lmopt--one iteration completed 
iter   =   5           ieval  =   9
ssq     =  3.367591E-08 m       =  9.765625E-04
ssqold  =  2.184793E-03 gradient=  0.797410    

parameter limiting=   1.000    
parameter        newvalue   delx       oldvalue   %chg       %totchg

ceq              4.6958E-14-5.4584E-17 4.6903E-14 0.1162     -369.6    

parameter       sensitivity %norm-sen  gradient 

ceq              8.5299E+14  100.0    -3.9870E+13

     newerr      olderr
   -1.8351E-04   -4.6742E-02


  broyden update ijac=  1




    optimization  results

         residual sum of squares     =  3.367591E-08
         norm of the gradient        =  3.130551E-03
         marquardt scaling parameter =  9.765625E-04
         no. of function evaluations =       10
         no. of iterations           =        5

    optimization completed

         measured results < relout=  1.0000E-03 on last iterations

**** optimized parameters optcap          
                                        %norm-sen        %change

.param ceq           =  46.9581f       $  100.0000        457.7140u      
****


 ******  Star-HSPICE  --    98.2  (980711)  03:23:03  01/09/2000  solaris      
******  
*      $id$                                                                   
 ******  operating point information      tnom=  25.000 temp= 100.000         
******  
***** operating point status is voltage   simulation time is     0.     
   node    =voltage      node    =voltage      node    =voltage


+0:in0     =   0.      0:in1     =   0.      0:input0  =   6.7627n
+0:input1  =   6.7627n 0:out_0   =   2.9700  0:vdd     =   2.9700 
+1:in1     =   2.9700  2:in1     =   2.9700  3:n0      =  61.7014m



 Opening plot unit= 15
file=./nand2_2x.in1.ic_1.tr0                                                  

******  
*      $id$                                                                   
 ******  transient analysis               tnom=  25.000 temp= 100.000         
******  
  dut_r           =  3.2112E-10  targ=  1.4211E-09   trig=  1.1000E-09
  dut_f           =  3.8134E-10  targ=  4.6813E-09   trig=  4.3000E-09
  dut_delay       =  3.5123E-10
  cap_r           =  3.2076E-10  targ=  1.4208E-09   trig=  1.1000E-09
  cap_f           =  3.8170E-10  targ=  4.6817E-09   trig=  4.3000E-09
  cap_delay       =  3.5123E-10
  opterror        =  2.2495E-19

         ***** job concluded
 ******  Star-HSPICE  --    98.2  (980711)  03:23:03  01/09/2000  solaris      
******  
*      $id$                                                                   
 ******  job statistics summary           tnom=  25.000 temp= 100.000         
******  

          total memory used        170 kbytes

 # nodes =    10 # elements=    18
 # diodes=     0 # bjts    =     0 # jfets   =     0 # mosfets =    12

    analysis      time      # points  tot. iter  conv.iter

    op point          0.04         1        72
    transient         1.74      2401      4741      2222 rev=   11
    readin            0.22
    errchk            0.02
    setup             0.00
    output            0.00
          total cpu time          2.05 seconds
              job started at  03:23:03  01/09/2000
              job ended   at  03:23:05  01/09/2000


 ******  Star-HSPICE  --    98.2  (980711)  03:23:03  01/09/2000  solaris      
******  
                                                                              
 ******    alter processing listing       tnom=  25.000 temp= 100.000         
******  
.trans 5ps '2*period'

**warning**: the above command card is not an acceptable alter card
if it is duplicate in comparison to previous input data.


**warning**: the above command card is not an acceptable alter card.

.measure tran ceff param='ceq'
.end
$ end of alter processing $
 ******  Star-HSPICE  --    98.2  (980711)  03:23:03  01/09/2000  solaris      
******  
*      $id$                                                                   
 ******  circuit name directory                                               
******  
circuit number to circuit name directory
number  circuitname                   definition        multiplier
    0 main circuit
    1 xbuf0.                          buffer             1.00 
    2 xbuf1.                          buffer             1.00 
    3 xdut0.                          nand2_2x           1.00 
 ******  Star-HSPICE  --    98.2  (980711)  03:23:03  01/09/2000  solaris      
******  
*      $id$                                                                   
 ******  mos   model parameters           tnom=  25.000 temp=  25.000         
******  
***************************************************************************
***        model parameters  model name:   0:nch      model type:nmos   ***
***************************************************************************

  *** general parameters ***
   deriv=   0.           

  ***  level 49  model parameters  ***

     hspver=       98.2               level=         49         
    version=        3.1            paramchk=          0         
     apwarn=          1             binUnit=          1         
     capMod=          2               xpart=          1         
     mobMod=          1              nqsMod=          0         
        elm=          5            sfvtflag=          0         
        tox=    7.6e-09 meter            xj=    1.5e-07 meter   
    binflag=          0                lmin=          0 meter   
       lmax=          0 meter          wmin=          0 meter   
       wmax=          0 meter          lref=          0 meter   
       wref=          0 meter          lint=1.73552e-09 meter   
       wint=7.18696e-08 meter         lmult=          1         
      wmult=          1                  ll=          0         
        lln=          1                  lw=          0         
        lwn=          1                 lwl=          0         
         wl=          0                 wln=          1         
         ww=          0                 wwn=          1         
        wwl=          0                 dwg=-1.71297e-08 m/V     
        dwb=5.85169e-09 m/V^1/2          a0=    1.13562         
        ags=   0.281037 V^-1             b0=2.84439e-07 meter   
         b1=      5e-06 meter          keta= -0.0078181 V^-1    
       voff=  -0.132935 V             ngate=          0 cm^-3   
        vbx=          0 V               vbm=         -3 V       
         xt=   1.55e-07 meter          vth0=   0.496445 V       
        nch=    1.7e+17 cm^-3          nsub=      6e+16 cm^-3   
        nlx= 2.8948e-07 meter        gamma1=          0 V^-1/2  
     gamma2=          0 V^-1/2           k1=   0.530777 V^1/2   
         k2=  0.0199705                  k3=   0.296364         
        k3b=   0.201216 V^-1             w0=2.83632e-06 meter   
       dvt0=   0.112017                dvt1=   0.245397         
       dvt2=  -0.171915 V^-1          dvt0w=          0 meter^-1
      dvt1w=    5.3e+06 meter^-1      dvt2w=     -0.032 V^-1    
       dsub=  0.0257957                eta0= 0.00212832         
       etab=          0 V^-1             u0=    444.938 cm^2/V/sec
         ua=2.92128e-10 m/V              ub=1.77328e-18 (m/V)^2 
         uc= 7.0679e-11 V^-1           vsat=     113078 m/sec   
         a1=          0 v^-1             a2=          1         
      delta=       0.01 V              rdsw=     925.27 ohm-um  
       prwg=     -0.001 V^-1           prwb=     -0.001 V^-1/2  
         wr=          1                pclm=   0.676631         
    pdiblc1=          1             pdiblc2= 0.00178742         
    pdiblcb=          0 V^-1         pscbe1=6.97348e+09 V/m     
     pscbe2=1.46235e-07 V/m           drout=   0.787354         
       pvag=       0.05             nfactor=   0.571097         
       cdsc=0.000860723 f/m^2         cdscb=          0 f/V/m^2 
      cdscd=          0 f/V/m^2         cit=          0 f/m^2   
     alpha0=          0 m/V           beta0=         30 V       
        dlc=1.73552e-09 meter           dwc=7.18696e-08 meter   
        clc=      1e-07 meter           cle=        0.6         
       cgso=   1.96e-10 f/m            cgdo=   1.96e-10 f/m     
       cgbo=          0 f/m            cgsl=          0 f/m     
       cgdl=          0 f/m          ckappa=        0.6         
         cf=8.75406e-11 f/m            tnom=     300.15 K       
        kt1=      -0.11 V              kt1l=          0         
        kt2=      0.022                 ute=       -1.5         
        ua1=   4.31e-09 m/V             ub1=  -7.61e-18 (m/V)^2 
        uc1=   -5.6e-11 m/V^2            at=      33000 m/s     
        prt=          0         
        using Berkeley noise model       noiMod=          1         
       noia=      1e+20                noib=      50000         
       noic=   -1.4e-12                  em=    4.1e+07         
         ef=          1                  af=          1         
         kf=          0         
        using Hspice diodes            using ACM 
        acm=         0                 hdif=         0 meter    
       ldif=         0 meter             js=         0 amp/m^2  
        jsw=         0 amp/m            xti=         0          
          n=         1                   cj=0.000927696 f/m^2    
         mj=   0.35577                   pb=  0.815796 V        
       cjsw=3.18106e-10 f/m             mjsw=       0.1          
        php=  0.815796 V               pbsw (not used)           
     cjgate=3.18106e-10 f/m            cjswg (not used)           
      mjswg (not used)                 pbswg (not used)           
      lketa= -0.0129496               wketa=-0.000764319         
      pvth0= -0.0252481                 pk2=-0.00480537         
      prdsw=   -96.4503         
***************************************************************************
***        model parameters  model name:   0:pch      model type:pmos   ***
***************************************************************************

  *** general parameters ***
   deriv=   0.           

  ***  level 49  model parameters  ***

     hspver=       98.2               level=         49         
    version=        3.1            paramchk=          0         
     apwarn=          1             binUnit=          1         
     capMod=          2               xpart=          1         
     mobMod=          1              nqsMod=          0         
        elm=          5            sfvtflag=          0         
        tox=    7.6e-09 meter            xj=    1.5e-07 meter   
    binflag=          0                lmin=          0 meter   
       lmax=          0 meter          wmin=          0 meter   
       wmax=          0 meter          lref=          0 meter   
       wref=          0 meter          lint=4.30928e-09 meter   
       wint=5.96223e-08 meter         lmult=          1         
      wmult=          1                  ll=          0         
        lln=          1                  lw=          0         
        lwn=          1                 lwl=          0         
         wl=          0                 wln=          1         
         ww=          0                 wwn=          1         
        wwl=          0                 dwg=-1.5962e-08 m/V     
        dwb=1.37892e-08 m/V^1/2          a0=    1.12101         
        ags=   0.396195 V^-1             b0=6.49314e-07 meter   
         b1=4.27322e-06 meter          keta=   -0.00927 V^-1    
       voff=      -0.15 V             ngate=          0 cm^-3   
        vbx=          0 V               vbm=         -3 V       
         xt=   1.55e-07 meter          vth0=  -0.663659 V       
        nch=    1.7e+17 cm^-3          nsub=      6e+16 cm^-3   
        nlx=1.51028e-07 meter        gamma1=          0 V^-1/2  
     gamma2=          0 V^-1/2           k1=   0.456478 V^1/2   
         k2=  -0.019447                  k3=    39.3829         
        k3b=    -2.8931 V^-1             w0=2.65558e-06 meter   
       dvt0=    1.17446                dvt1=   0.763113         
       dvt2=  -0.103517 V^-1          dvt0w=          0 meter^-1
      dvt1w=    5.3e+06 meter^-1      dvt2w=     -0.032 V^-1    
       dsub=   0.243603                eta0=  0.0286461         
       etab=          0 V^-1             u0=    151.331 cm^2/V/sec
         ua=2.06121e-10 m/V              ub=1.82348e-18 (m/V)^2 
         uc=-8.97321e-12 V^-1           vsat=      99156 m/sec   
         a1=          0 v^-1             a2=          1         
      delta=       0.01 V              rdsw=    2307.25 ohm-um  
       prwg=     -0.001 V^-1           prwb=          0 V^-1/2  
         wr=          1                pclm=    4.35975         
    pdiblc1=0.000744702             pdiblc2= 0.00425607         
    pdiblcb=          0 V^-1         pscbe1=1.34762e+10 V/m     
     pscbe2=      5e-09 V/m           drout=  0.0120292         
       pvag=    3.66979             nfactor=          2         
       cdsc=0.000659308 f/m^2         cdscb=          0 f/V/m^2 
      cdscd=          0 f/V/m^2         cit=          0 f/m^2   
     alpha0=          0 m/V           beta0=         30 V       
        dlc=4.30928e-09 meter           dwc=5.96223e-08 meter   
        clc=      1e-07 meter           cle=        0.6         
       cgso=  2.307e-10 f/m            cgdo=  2.307e-10 f/m     
       cgbo=          0 f/m            cgsl=          0 f/m     
       cgdl=          0 f/m          ckappa=        0.6         
         cf=8.75406e-11 f/m            tnom=     300.15 K       
        kt1=      -0.11 V              kt1l=          0         
        kt2=      0.022                 ute=       -1.5         
        ua1=   4.31e-09 m/V             ub1=  -7.61e-18 (m/V)^2 
        uc1=   -5.6e-11 m/V^2            at=      33000 m/s     
        prt=          0         
        using Berkeley noise model       noiMod=          1         
       noia=    9.9e+18                noib=       2400         
       noic=    1.4e-12                  em=    4.1e+07         
         ef=          1                  af=          1         
         kf=          0         
        using Hspice diodes            using ACM 
        acm=         0                 hdif=         0 meter    
       ldif=         0 meter             js=         0 amp/m^2  
        jsw=         0 amp/m            xti=         0          
          n=         1                   cj=0.00142028 f/m^2    
         mj=  0.549088                   pb=      0.99 V        
       cjsw=4.77361e-10 f/m             mjsw=  0.199742          
        php=      0.99 V               pbsw (not used)           
     cjgate=4.77361e-10 f/m            cjswg (not used)           
      mjswg (not used)                 pbswg (not used)           
      lketa= 0.00602797               wketa= -0.0101398         
      pvth0= 0.00658707                 pk2= 0.00101159         
      prdsw=   -93.5582         
 ******  Star-HSPICE  --    98.2  (980711)  03:23:03  01/09/2000  solaris      
******  
*      $id$                                                                   
 ******  optimize model parameters        tnom=  25.000 temp=  25.000         
******  
*********************************
***  model name:   0:optmod  ****
*********************************

    names  values   units     names  values   units     names  values   units
    -----  ------   -----     -----  ------   -----     -----  ------   -----
   level=   1.00             relin=   1.00m           relout=   1.00m        
    grad=   1.00u            close=   1.00               cut=   2.00         
     max= 600.00k           itropt=  20.00            cendif=   1.00n        
  difsiz=   1.00m           parmin= 100.00m        
 

**warning** both nodes of source     0:vgnd            
            are connected together


**warning** both nodes of capacitor     3:c1              
            are connected together

 Opening plot unit= 15
file=./nand2_2x.in1.ic_1.pa1                                                  



entering lmopt 
  parm names init guess, lower, upper bounds
ceq                 1.0000E-14    1.0000E-15    1.0000E-12        0.    

calculate gradient by finite differences  isw= 1
lmopt--one iteration completed 
iter   =   1           ieval  =   3
ssq     =   406.126     m       =  0.250000    
ssqold  =   1396.14     gradient=   894.021    

parameter limiting=   1.000    
parameter        newvalue   delx       oldvalue   %chg       %totchg

ceq              2.5616E-14-1.5616E-14 1.0000E-14  60.96     -156.2    

parameter       sensitivity %norm-sen  gradient 

ceq              1.1963E+15  100.0    -4.4701E+16


  broyden update ijac=  1
lmopt--one iteration completed 
iter   =   2           ieval  =   4
ssq     =   36.6420     m       =  6.250000E-02
ssqold  =   406.126     gradient=   444.243    

parameter limiting=   1.000    
parameter        newvalue   delx       oldvalue   %chg       %totchg

ceq              4.0244E-14-1.4627E-14 2.5616E-14  36.35     -302.4    

parameter       sensitivity %norm-sen  gradient 

ceq              1.1022E+15  100.0    -2.2212E+16

     newerr      olderr
    -6.053        -20.15    


calculate gradient by finite differences  isw= 1
lmopt--one iteration completed 
iter   =   3           ieval  =   6
ssq     =  0.433114     m       =  1.562500E-02
ssqold  =   36.6420     gradient=   116.006    

parameter limiting=   1.000    
parameter        newvalue   delx       oldvalue   %chg       %totchg

ceq              4.6189E-14-5.9456E-15 4.0244E-14  12.87     -361.9    

parameter       sensitivity %norm-sen  gradient 

ceq              9.5821E+14  100.0    -5.8003E+15

     newerr      olderr
   -0.6581        -6.053    


  broyden update ijac=  1
lmopt--one iteration completed 
iter   =   4           ieval  =   7
ssq     =  2.184793E-03 m       =  3.906250E-03
ssqold  =  0.433114     gradient=   11.9436    

parameter limiting=   1.000    
parameter        newvalue   delx       oldvalue   %chg       %totchg

ceq              4.6903E-14-7.1411E-16 4.6189E-14  1.523     -369.0    

parameter       sensitivity %norm-sen  gradient 

ceq              9.0741E+14  100.0    -5.9718E+14

     newerr      olderr
   -4.6742E-02   -0.6581    


calculate gradient by finite differences  isw= 1
lmopt--one iteration completed 
iter   =   5           ieval  =   9
ssq     =  3.367591E-08 m       =  9.765625E-04
ssqold  =  2.184793E-03 gradient=  0.797410    

parameter limiting=   1.000    
parameter        newvalue   delx       oldvalue   %chg       %totchg

ceq              4.6958E-14-5.4584E-17 4.6903E-14 0.1162     -369.6    

parameter       sensitivity %norm-sen  gradient 

ceq              8.5299E+14  100.0    -3.9870E+13

     newerr      olderr
   -1.8351E-04   -4.6742E-02


  broyden update ijac=  1




    optimization  results

         residual sum of squares     =  3.367591E-08
         norm of the gradient        =  3.130551E-03
         marquardt scaling parameter =  9.765625E-04
         no. of function evaluations =       10
         no. of iterations           =        5

    optimization completed

         measured results < relout=  1.0000E-03 on last iterations

**** optimized parameters optcap          
                                        %norm-sen        %change

.param ceq           =  46.9581f       $  100.0000        457.7140u      
****


 ******  Star-HSPICE  --    98.2  (980711)  03:23:03  01/09/2000  solaris      
******  
*      $id$                                                                   
 ******  operating point information      tnom=  25.000 temp= 100.000         
******  
***** operating point status is voltage   simulation time is     0.     
   node    =voltage      node    =voltage      node    =voltage


+0:in0     =   0.      0:in1     =   0.      0:input0  =   6.7627n
+0:input1  =   6.7627n 0:out_0   =   2.9700  0:vdd     =   2.9700 
+1:in1     =   2.9700  2:in1     =   2.9700  3:n0      =  61.7014m



 Opening plot unit= 15
file=./nand2_2x.in1.ic_1.tr1                                                  

******  
*      $id$                                                                   
 ******  transient analysis               tnom=  25.000 temp= 100.000         
******  
  dut_r           =  3.2112E-10  targ=  1.4211E-09   trig=  1.1000E-09
  dut_f           =  3.8134E-10  targ=  4.6813E-09   trig=  4.3000E-09
  dut_delay       =  3.5123E-10
  cap_r           =  3.2076E-10  targ=  1.4208E-09   trig=  1.1000E-09
  cap_f           =  3.8170E-10  targ=  4.6817E-09   trig=  4.3000E-09
  cap_delay       =  3.5123E-10
  opterror        =  2.2495E-19
 Opening plot unit= 15
file=./nand2_2x.in1.ic_1.tr2                                                  

******  
*      $id$                                                                   
 ******  transient analysis               tnom=  25.000 temp= 100.000         
******  
  dut_r           =  3.2112E-10  targ=  1.4211E-09   trig=  1.1000E-09
  dut_f           =  3.8134E-10  targ=  4.6813E-09   trig=  4.3000E-09
  dut_delay       =  3.5123E-10
  cap_r           =  3.2076E-10  targ=  1.4208E-09   trig=  1.1000E-09
  cap_f           =  3.8170E-10  targ=  4.6817E-09   trig=  4.3000E-09
  cap_delay       =  3.5123E-10
  opterror        =  2.2495E-19
  ceff            =  4.6958E-14

         ***** job concluded
 ******  Star-HSPICE  --    98.2  (980711)  03:23:03  01/09/2000  solaris      
******  
*      $id$                                                                   
 ******  job statistics summary           tnom=  25.000 temp= 100.000         
******  

          total memory used        170 kbytes

 # nodes =    10 # elements=    18
 # diodes=     0 # bjts    =     0 # jfets   =     0 # mosfets =    12

    analysis      time      # points  tot. iter  conv.iter

    op point          0.22         1        75
    transient         2.02      2401      5171      2424 rev=   12
    readin            0.05
    errchk            0.02
    setup             0.00
    output            0.00
          total cpu time          2.17 seconds
              job started at  03:23:03  01/09/2000
              job ended   at  03:23:08  01/09/2000


lic: Release  token(s) 
HSPICE job nand2_2x.in1.ic_1.sp completed.
Sun Jan  9 03:23:08 PST 2000
