Using: /cad/avanti/98.2/sol4/hspice
******  Star-HSPICE  --    98.2  (980711)  02:53:17  01/09/2000  solaris      
 Copyright (C) 1985-1997 by Avant! Corporation.                               
 Unpublished-rights reserved under US copyright laws.
 This program is protected by law and is subject to the 
 terms and conditions of the license agreement found in:
   /cad/avanti/98.2/license.txt
 Use of this program is your acceptance to be bound by this 
 license agreement. Star-HSPICE is the trademark of 
 Avant! Corporation.
 Input File: dff_2x.d.clk.q.h_3.sp                                             
lic:  
lic: FLEXlm:v5.12  USER:ryu  HOSTNAME:encina  HOSTID:80a7396e  PID:6473 
lic: Using FLEXlm license file: 
lic: /cad/avanti/98.2/license.dat 
lic: Checkout hspice;  Encryption code: 5C3400918DF1E79DC274 
lic: License/Maintenance for hspice will expire on 26-mar-2000/2000.100 
lic: 1(in_use)/1 FLOATING license(s) on SERVER wireless 
lic:   
Init: read install configuration file: /cad/avanti/98.2/meta.cfg
Init: hspice initialization file: /cad/avanti/98.2/hspice.ini
******  
*      $id$                                                                   
                                                                              
******  
* reading file:  /cad/avanti/98.2/hspice.ini
 
*      do not edit.  this file generated automagically.
*      created: sun jan  9  2:53:16 us/pacific 2000
*      user: ryu
 
*      char:   d-flop hold time characterization
*      data:   'd'
*      clock:  'clk'
*      q:     'q'
*      c:      'mout'
*      trans:  'hl'
 
*--- setup ---------------------------------------------------
.include '/people/ryu/src/autochar-1.5.5/tech/tsmc35/include/ttlh.sp'
*      $id: ttlh,v 1.4 1999/01/19 08:15:10 ryu exp ryu $
 
*      copyright (c) 1999 robert k. yu
*      email: robert@yu.org
 
*      this file is part of autochar.
 
*      autochar is free software; you can redistribute it and/or modify
*      it under the terms of the gnu general public license as published by
*      the free software foundation; either version 2, or (at your option)
*      any later version.
 
*      autochar is distributed in the hope that it will be useful,
*      but without any warranty; without even the implied warranty of
*      merchantability or fitness for a particular purpose.  see the
*      gnu general public license for more details.
 
*      you should have received a copy of the gnu general public license
*      along with autochar; see the file copying.  if not, write to the
*      free software foundation, inc., 59 temple place - suite 330,
*      boston, ma 02111-1307, usa.
 
 
*      sample hspice include file to read
*      in hspice models, library, and conditions.
 
*      ttlh :=
*          t ypical n
*          t ypical p
*          l ow vdd
*          h igh temperature
 
.lib     /people/ryu/src/autochar-1.5.5/tech/tsmc35/lib/define.sp defaults
.param
+      trise   = 200ps
+      tfall   = 200ps
+      period  = 6ns
+      pwidth  = 3ns
 
.options
+      scale   = 1.0e-6
 
.endl
.lib     /people/ryu/src/autochar-1.5.5/tech/tsmc35/lib/define.sp low_voltage
.param
+      vhigh = '3.3*0.9'
+      vlow = 0
+      vmidpoint = '(vhigh+vlow)/2'
.endl
.lib    /people/ryu/src/autochar-1.5.5/tech/tsmc35/lib/define.sp high_temp
.temp 100
.endl
.lib     /people/ryu/src/autochar-1.5.5/tech/tsmc35/lib/define.sp supplies
vvdd vdd 0 dc vhigh
vgnd gnd 0 dc 0
.global vdd gnd
.endl
 
.include /people/ryu/src/autochar-1.5.5/tech/tsmc35/lib/models.sp
*  n88y spice bsim3 version 3.1 (hspice level 49) parameters
 
* date: oct 30/98
* lot: n88y                  waf: 11
* temperature_parameters=default
.model nch nmos (                                level   = 49
+version = 3.1            tnom    = 27             tox     = 7.6e-9
+xj      = 1.5e-7         nch     = 1.7e17         vth0    = 0.4964448
+k1      = 0.5307769      k2      = 0.0199705      k3      = 0.2963637
+k3b     = 0.2012165      w0      = 2.836319e-6    nlx     = 2.894802e-7
+dvt0w   = 0              dvt1w   = 5.3e6          dvt2w   = -0.032
+dvt0    = 0.112017       dvt1    = 0.2453972      dvt2    = -0.171915
+u0      = 444.9381976    ua      = 2.921284e-10   ub      = 1.773281e-18
+uc      = 7.067896e-11   vsat    = 1.130785e5     a0      = 1.1356246
+ags     = 0.2810374      b0      = 2.844393e-7    b1      = 5e-6
+keta    = -7.8181e-3     a1      = 0              a2      = 1
+rdsw    = 925.2701982    prwg    = -1e-3          prwb    = -1e-3
+wr      = 1              wint    = 7.186965e-8    lint    = 1.735515e-9
+xl      = 0              xw      = 0              dwg     = -1.712973e-8
+dwb     = 5.851691e-9    voff    = -0.132935      nfactor = 0.5710974
+cit     = 0              cdsc    = 8.607229e-4    cdscd   = 0
+cdscb   = 0              eta0    = 2.128321e-3    etab    = 0
+dsub    = 0.0257957      pclm    = 0.6766314      pdiblc1 = 1
+pdiblc2 = 1.787424e-3    pdiblcb = 0              drout   = 0.7873539
+pscbe1  = 6.973485e9     pscbe2  = 1.46235e-7     pvag    = 0.05
+delta   = 0.01           mobmod  = 1              prt     = 0
+ute     = -1.5           kt1     = -0.11          kt1l    = 0
+kt2     = 0.022          ua1     = 4.31e-9        ub1     = -7.61e-18
+uc1     = -5.6e-11       at      = 3.3e4          wl      = 0
+wln     = 1              ww      = 0              wwn     = 1
+wwl     = 0              ll      = 0              lln     = 1
+lw      = 0              lwn     = 1              lwl     = 0
+capmod  = 2              cgdo    = 1.96e-10       cgso    = 1.96e-10
+cgbo    = 0              cj      = 9.276962e-4    pb      = 0.8157962
+mj      = 0.3557696      cjsw    = 3.181055e-10   pbsw    = 0.6869149
+mjsw    = 0.1            pvth0   = -0.0252481     prdsw   = -96.4502805
+pk2     = -4.805372e-3   wketa   = -7.643187e-4   lketa   = -0.0129496      )
*
.model pch pmos (                                level   = 49
+version = 3.1            tnom    = 27             tox     = 7.6e-9
+xj      = 1.5e-7         nch     = 1.7e17         vth0    = -0.6636594
+k1      = 0.4564781      k2      = -0.019447      k3      = 39.382919
+k3b     = -2.8930965     w0      = 2.655585e-6    nlx     = 1.51028e-7
+dvt0w   = 0              dvt1w   = 5.3e6          dvt2w   = -0.032
+dvt0    = 1.1744581      dvt1    = 0.7631128      dvt2    = -0.1035171
+u0      = 151.3305606    ua      = 2.061211e-10   ub      = 1.823477e-18
+uc      = -8.97321e-12   vsat    = 9.915604e4     a0      = 1.1210053
+ags     = 0.3961954      b0      = 6.493139e-7    b1      = 4.273215e-6
+keta    = -9.27e-3       a1      = 0              a2      = 1
+rdsw    = 2.30725e3      prwg    = -1e-3          prwb    = 0
+wr      = 1              wint    = 5.962233e-8    lint    = 4.30928e-9
+xl      = 0              xw      = 0              dwg     = -1.596201e-8
+dwb     = 1.378919e-8    voff    = -0.15          nfactor = 2
+cit     = 0              cdsc    = 6.593084e-4    cdscd   = 0
+cdscb   = 0              eta0    = 0.0286461      etab    = 0
+dsub    = 0.2436027      pclm    = 4.3597508      pdiblc1 = 7.447024e-4
+pdiblc2 = 4.256073e-3    pdiblcb = 0              drout   = 0.0120292
+pscbe1  = 1.347622e10    pscbe2  = 5e-9           pvag    = 3.669793
+delta   = 0.01           mobmod  = 1              prt     = 0
+ute     = -1.5           kt1     = -0.11          kt1l    = 0
+kt2     = 0.022          ua1     = 4.31e-9        ub1     = -7.61e-18
+uc1     = -5.6e-11       at      = 3.3e4          wl      = 0
+wln     = 1              ww      = 0              wwn     = 1
+wwl     = 0              ll      = 0              lln     = 1
+lw      = 0              lwn     = 1              lwl     = 0
+capmod  = 2              cgdo    = 2.307e-10      cgso    = 2.307e-10
+cgbo    = 0              cj      = 1.420282e-3    pb      = 0.99
+mj      = 0.5490877      cjsw    = 4.773605e-10   pbsw    = 0.99
+mjsw    = 0.1997417      pvth0   = 6.58707e-3     prdsw   = -93.5582228
+pk2     = 1.011593e-3    wketa   = -0.0101398     lketa   = 6.027967e-3     )
*
.include 'dff_2x.sp'
*      $id: dff_2x.sp,v 1.6 1999/01/30 21:06:48 ryu exp $
 
.subckt xgate out in gaten gatep
+      wp=4
+      wn=2
m0 in gatep out vdd pch l=0.35 w=wp
m1 in gaten out gnd nch l=0.35 w=wn
.ends
 
.subckt inv out in
+      wp=12
+      wn=6
m0 out in gnd gnd nch l=0.35 w=wn
m1 out in vdd vdd pch l=0.35 w=wp
.ends
 
.subckt dff_2x q d clk clk_n
* begin port declarations
* port output q
* port input d
* port input clk
* port input clk_n
* end port declarations
x1 min d clk_n clk xgate
x2 min mout inv wp=2 wn=1
x3 mout min inv
x4 s mout clk clk_n xgate
x5 s s_n inv wp=2 wn=1
x6 s_n s inv
x7 q s inv
cmin min gnd 5ff
cmout mout gnd 5ff
cs s gnd 5ff
cs_n s_n gnd 5ff
.ends
.include /people/ryu/src/autochar-1.5.5/tech/tsmc35/lib/autochar.sp
*      $id: autochar.sp,v 1.1 1999/01/19 09:04:21 ryu exp $
 
*      copyright (c) 1999 robert k. yu
*      email: robert@yu.org
 
*      this file is part of autochar.
 
*      autochar is free software; you can redistribute it and/or modify
*      it under the terms of the gnu general public license as published by
*      the free software foundation; either version 2, or (at your option)
*      any later version.
 
*      autochar is distributed in the hope that it will be useful,
*      but without any warranty; without even the implied warranty of
*      merchantability or fitness for a particular purpose.  see the
*      gnu general public license for more details.
 
*      you should have received a copy of the gnu general public license
*      along with autochar; see the file copying.  if not, write to the
*      free software foundation, inc., 59 temple place - suite 330,
*      boston, ma 02111-1307, usa.
 
*      simple inverter
 
.subckt inverter in out
+      nl=0.6
+      nw=5.0
+      pl=0.6
+      pw=10.0
mn0 out in 0   0   nch l=nl w=nw
mp1 out in vdd vdd pch l=pl w=pw
.ends
 
 
*      simple buffer
.subckt buffer in out
+      nl=0.6
+      nw=5.0
+      pl=0.6
+      pw=10.0
+      taper=3
mn0 in1 in 0   0   nch l=nl w=nw
mp1 in1 in vdd vdd pch l=pl w=pw
mn2 out in1 0  0   nch l=nl w='taper*nw'
mp3 out in1 vdd        vdd pch l=pl w='taper*pw'
.ends
 
 
*      simple buffer with infinite drive
.subckt ebuffer in out
+      nl=0.6
+      nw=5.0
+      pl=0.6
+      pw=10.0
+      taper=3
mn0 in1 in 0   0   nch l=nl w=nw
mp1 in1 in vdd vdd pch l=pl w=pw
mn2 in2 in1 0  0   nch l=nl w='taper*nw'
mp3 in2 in1 vdd        vdd pch l=pl w='taper*pw'
* fo=3 load
xload1 in2 nc1 buffer m=3
* infinite drive
ebuf out 0 in2 0 +1
.ends
 
 
*      resistive 'buffer'
.subckt resbuffer in out
+      r=1k
rbuf in out r
.ends
 
 
*      short 'buffer'
.subckt shortbuf in out
vshort in out 0
.ends
 
 
*      infinite drive buffer with slew rate parameter using rc
*      input must be an ideal pulse.
*      to control the edge.
.subckt slewbuffer in out
+      rslew=1k
+      slew=slewrate           $ default from global param slewrate
+      start=slew_start        $ default from global param slew_start
+      end=slew_end            $ default from global param slew_end
.param cslew='abs(slew/(rslew*(log(start)-log(end))))'
rbuf in out1 rslew
cbuf out1 0 cslew
* infinite drive
ebuf out 0 out1 0 +1
.ends
 
.options
+      optlst  = 1
+      post    = 1
.model optmod opt method=bisection
+      relin=0.001
+      relout=0.001
.param hold = opthold('-1.5ns', '-1.5ns', '0')
.param slewrate = '4.00002e-11'
.param slew_start = '0.1'
.param slew_end = '0.9'
 
*--- inputs --------------------------------------------------
vclk vclk 0 pulse (
+     '0'
+      'vhigh'
+      '1ns+trise/2'
+     '0'
+     '0'
+      'pwidth+trise/2+tfall/2'
+      'period')
vd vd 0 pulse (
+      'vhigh'
+     '0'
+      '1ns+trise+pwidth'
+      'trise'
+      'tfall'
+      'pwidth+hold'
+      '4*period')
 
*--- test circuit --------------------------------------------
xdbuf vd d ebuffer
xclkbuf vclk clk slewbuffer
xflop
+      q       $ q:o
+      d       $ d:i
+      clk     $ clk:i
+      diff_1  $ clk_n:i
+      dff_2x
e1 diff_1 0 clk vdd -1
 
*--- loads ---------------------------------------------------
c0 q 0 100ff
 
*--- measure -------------------------------------------------
.option autostop
* measure hold time:
.measure tran hold_hl trig= v(clk) val='vhigh/2' rise=2
+      targ=v(d) val='vhigh/2' cross=2
* measure clock slew rate:
.measure tran clkslew trig= v(clk) val='0+0.1*vhigh' rise=2
+      targ=v(clk) val='0+0.9*vhigh' rise=2
 
* measure internal criterion node:
.measure tran vcrit find v(xflop.mout)
+      when v(clk)='0.8*vhigh' rise=2
.measure tran optpass param='vcrit/vhigh'
+      goal='0.8'
 
*--- transient -----------------------------------------------
.trans 5ps '2*period' sweep
+      optimize=opthold
+      results=optpass
+      model=optmod
.trans 5ps '2*period'
 
* measure final clock->q time:
.measure tran clk_q trig=v(clk) val='vhigh/2' rise=2
+      targ=v(q) val='vhigh/2' fall=1
 
* alter slewrate:
.alter
 ******  Star-HSPICE  --    98.2  (980711)  02:53:17  01/09/2000  solaris      
******  
*      $id$                                                                   
 ******  circuit name directory                                               
******  
circuit number to circuit name directory
number  circuitname                   definition        multiplier
    0 main circuit
    1 xdbuf.                          ebuffer            1.00 
    2 xclkbuf.                        slewbuffer         1.00 
    3 xflop.                          dff_2x             1.00 
    4 xdbuf.xload1.                   buffer             3.00 
    5 xflop.x1.                       xgate              1.00 
    6 xflop.x2.                       inv                1.00 
    7 xflop.x3.                       inv                1.00 
    8 xflop.x4.                       xgate              1.00 
    9 xflop.x5.                       inv                1.00 
   10 xflop.x6.                       inv                1.00 
   11 xflop.x7.                       inv                1.00 
 ******  Star-HSPICE  --    98.2  (980711)  02:53:17  01/09/2000  solaris      
******  
*      $id$                                                                   
 ******  mos   model parameters           tnom=  25.000 temp=  25.000         
******  
***************************************************************************
***        model parameters  model name:   0:nch      model type:nmos   ***
***************************************************************************

  *** general parameters ***
   deriv=   0.           

  ***  level 49  model parameters  ***

     hspver=       98.2               level=         49         
    version=        3.1            paramchk=          0         
     apwarn=          1             binUnit=          1         
     capMod=          2               xpart=          1         
     mobMod=          1              nqsMod=          0         
        elm=          5            sfvtflag=          0         
        tox=    7.6e-09 meter            xj=    1.5e-07 meter   
    binflag=          0                lmin=          0 meter   
       lmax=          0 meter          wmin=          0 meter   
       wmax=          0 meter          lref=          0 meter   
       wref=          0 meter          lint=1.73552e-09 meter   
       wint=7.18696e-08 meter         lmult=          1         
      wmult=          1                  ll=          0         
        lln=          1                  lw=          0         
        lwn=          1                 lwl=          0         
         wl=          0                 wln=          1         
         ww=          0                 wwn=          1         
        wwl=          0                 dwg=-1.71297e-08 m/V     
        dwb=5.85169e-09 m/V^1/2          a0=    1.13562         
        ags=   0.281037 V^-1             b0=2.84439e-07 meter   
         b1=      5e-06 meter          keta= -0.0078181 V^-1    
       voff=  -0.132935 V             ngate=          0 cm^-3   
        vbx=          0 V               vbm=         -3 V       
         xt=   1.55e-07 meter          vth0=   0.496445 V       
        nch=    1.7e+17 cm^-3          nsub=      6e+16 cm^-3   
        nlx= 2.8948e-07 meter        gamma1=          0 V^-1/2  
     gamma2=          0 V^-1/2           k1=   0.530777 V^1/2   
         k2=  0.0199705                  k3=   0.296364         
        k3b=   0.201216 V^-1             w0=2.83632e-06 meter   
       dvt0=   0.112017                dvt1=   0.245397         
       dvt2=  -0.171915 V^-1          dvt0w=          0 meter^-1
      dvt1w=    5.3e+06 meter^-1      dvt2w=     -0.032 V^-1    
       dsub=  0.0257957                eta0= 0.00212832         
       etab=          0 V^-1             u0=    444.938 cm^2/V/sec
         ua=2.92128e-10 m/V              ub=1.77328e-18 (m/V)^2 
         uc= 7.0679e-11 V^-1           vsat=     113078 m/sec   
         a1=          0 v^-1             a2=          1         
      delta=       0.01 V              rdsw=     925.27 ohm-um  
       prwg=     -0.001 V^-1           prwb=     -0.001 V^-1/2  
         wr=          1                pclm=   0.676631         
    pdiblc1=          1             pdiblc2= 0.00178742         
    pdiblcb=          0 V^-1         pscbe1=6.97348e+09 V/m     
     pscbe2=1.46235e-07 V/m           drout=   0.787354         
       pvag=       0.05             nfactor=   0.571097         
       cdsc=0.000860723 f/m^2         cdscb=          0 f/V/m^2 
      cdscd=          0 f/V/m^2         cit=          0 f/m^2   
     alpha0=          0 m/V           beta0=         30 V       
        dlc=1.73552e-09 meter           dwc=7.18696e-08 meter   
        clc=      1e-07 meter           cle=        0.6         
       cgso=   1.96e-10 f/m            cgdo=   1.96e-10 f/m     
       cgbo=          0 f/m            cgsl=          0 f/m     
       cgdl=          0 f/m          ckappa=        0.6         
         cf=8.75406e-11 f/m            tnom=     300.15 K       
        kt1=      -0.11 V              kt1l=          0         
        kt2=      0.022                 ute=       -1.5         
        ua1=   4.31e-09 m/V             ub1=  -7.61e-18 (m/V)^2 
        uc1=   -5.6e-11 m/V^2            at=      33000 m/s     
        prt=          0         
        using Berkeley noise model       noiMod=          1         
       noia=      1e+20                noib=      50000         
       noic=   -1.4e-12                  em=    4.1e+07         
         ef=          1                  af=          1         
         kf=          0         
        using Hspice diodes            using ACM 
        acm=         0                 hdif=         0 meter    
       ldif=         0 meter             js=         0 amp/m^2  
        jsw=         0 amp/m            xti=         0          
          n=         1                   cj=0.000927696 f/m^2    
         mj=   0.35577                   pb=  0.815796 V        
       cjsw=3.18106e-10 f/m             mjsw=       0.1          
        php=  0.815796 V               pbsw (not used)           
     cjgate=3.18106e-10 f/m            cjswg (not used)           
      mjswg (not used)                 pbswg (not used)           
      lketa= -0.0129496               wketa=-0.000764319         
      pvth0= -0.0252481                 pk2=-0.00480537         
      prdsw=   -96.4503         
***************************************************************************
***        model parameters  model name:   0:pch      model type:pmos   ***
***************************************************************************

  *** general parameters ***
   deriv=   0.           

  ***  level 49  model parameters  ***

     hspver=       98.2               level=         49         
    version=        3.1            paramchk=          0         
     apwarn=          1             binUnit=          1         
     capMod=          2               xpart=          1         
     mobMod=          1              nqsMod=          0         
        elm=          5            sfvtflag=          0         
        tox=    7.6e-09 meter            xj=    1.5e-07 meter   
    binflag=          0                lmin=          0 meter   
       lmax=          0 meter          wmin=          0 meter   
       wmax=          0 meter          lref=          0 meter   
       wref=          0 meter          lint=4.30928e-09 meter   
       wint=5.96223e-08 meter         lmult=          1         
      wmult=          1                  ll=          0         
        lln=          1                  lw=          0         
        lwn=          1                 lwl=          0         
         wl=          0                 wln=          1         
         ww=          0                 wwn=          1         
        wwl=          0                 dwg=-1.5962e-08 m/V     
        dwb=1.37892e-08 m/V^1/2          a0=    1.12101         
        ags=   0.396195 V^-1             b0=6.49314e-07 meter   
         b1=4.27322e-06 meter          keta=   -0.00927 V^-1    
       voff=      -0.15 V             ngate=          0 cm^-3   
        vbx=          0 V               vbm=         -3 V       
         xt=   1.55e-07 meter          vth0=  -0.663659 V       
        nch=    1.7e+17 cm^-3          nsub=      6e+16 cm^-3   
        nlx=1.51028e-07 meter        gamma1=          0 V^-1/2  
     gamma2=          0 V^-1/2           k1=   0.456478 V^1/2   
         k2=  -0.019447                  k3=    39.3829         
        k3b=    -2.8931 V^-1             w0=2.65558e-06 meter   
       dvt0=    1.17446                dvt1=   0.763113         
       dvt2=  -0.103517 V^-1          dvt0w=          0 meter^-1
      dvt1w=    5.3e+06 meter^-1      dvt2w=     -0.032 V^-1    
       dsub=   0.243603                eta0=  0.0286461         
       etab=          0 V^-1             u0=    151.331 cm^2/V/sec
         ua=2.06121e-10 m/V              ub=1.82348e-18 (m/V)^2 
         uc=-8.97321e-12 V^-1           vsat=      99156 m/sec   
         a1=          0 v^-1             a2=          1         
      delta=       0.01 V              rdsw=    2307.25 ohm-um  
       prwg=     -0.001 V^-1           prwb=          0 V^-1/2  
         wr=          1                pclm=    4.35975         
    pdiblc1=0.000744702             pdiblc2= 0.00425607         
    pdiblcb=          0 V^-1         pscbe1=1.34762e+10 V/m     
     pscbe2=      5e-09 V/m           drout=  0.0120292         
       pvag=    3.66979             nfactor=          2         
       cdsc=0.000659308 f/m^2         cdscb=          0 f/V/m^2 
      cdscd=          0 f/V/m^2         cit=          0 f/m^2   
     alpha0=          0 m/V           beta0=         30 V       
        dlc=4.30928e-09 meter           dwc=5.96223e-08 meter   
        clc=      1e-07 meter           cle=        0.6         
       cgso=  2.307e-10 f/m            cgdo=  2.307e-10 f/m     
       cgbo=          0 f/m            cgsl=          0 f/m     
       cgdl=          0 f/m          ckappa=        0.6         
         cf=8.75406e-11 f/m            tnom=     300.15 K       
        kt1=      -0.11 V              kt1l=          0         
        kt2=      0.022                 ute=       -1.5         
        ua1=   4.31e-09 m/V             ub1=  -7.61e-18 (m/V)^2 
        uc1=   -5.6e-11 m/V^2            at=      33000 m/s     
        prt=          0         
        using Berkeley noise model       noiMod=          1         
       noia=    9.9e+18                noib=       2400         
       noic=    1.4e-12                  em=    4.1e+07         
         ef=          1                  af=          1         
         kf=          0         
        using Hspice diodes            using ACM 
        acm=         0                 hdif=         0 meter    
       ldif=         0 meter             js=         0 amp/m^2  
        jsw=         0 amp/m            xti=         0          
          n=         1                   cj=0.00142028 f/m^2    
         mj=  0.549088                   pb=      0.99 V        
       cjsw=4.77361e-10 f/m             mjsw=  0.199742          
        php=      0.99 V               pbsw (not used)           
     cjgate=4.77361e-10 f/m            cjswg (not used)           
      mjswg (not used)                 pbswg (not used)           
      lketa= 0.00602797               wketa= -0.0101398         
      pvth0= 0.00658707                 pk2= 0.00101159         
      prdsw=   -93.5582         
 ******  Star-HSPICE  --    98.2  (980711)  02:53:17  01/09/2000  solaris      
******  
*      $id$                                                                   
 ******  optimize model parameters        tnom=  25.000 temp=  25.000         
******  
*********************************
***  model name:   0:optmod  ****
*********************************

    names  values   units     names  values   units     names  values   units
    -----  ------   -----     -----  ------   -----     -----  ------   -----
   level=   3.00             relin=   1.00m           relout=   1.00m        
    grad=   1.00u            close=   1.00               cut=   2.00         
     max= 600.00k           itropt=  20.00            cendif=   1.00n        
  difsiz=   1.00m           parmin= 100.00m        
 

**warning** both nodes of source     0:vgnd            
            are connected together


*** warning *** pulse rise time is  < or = zero, reset to tstep


*** warning *** pulse fall time is  < or = zero, reset to tstep



Warning: Pd = 0 is less than W.
Model:    0:nch
W = 5e-06, L = 6e-07

 Opening plot unit= 15
file=./dff_2x.d.clk.q.h_3.pa0                                                 



entering lmopt 
  parm names init guess, lower, upper bounds
hold               -1.5000E-09   -1.5000E-09        0.            0.    
**warning** negative-mos conductance =     4:mp3              iter=   38
vds,vgs,vbs =      -617.          2.97            0.    
 gm,gds,gmbs,ids=      223.          1.65         -5.39          33.4    
bisec-opt.  iter =   1 xlo =  -1.50000E-09  xhi =        0.    
                         x =  -1.50000E-09 xnew =        0.    
                       err =   0.98678    

bisec-opt.  iter =   2 xlo =  -1.50000E-09  xhi =        0.    
                         x =        0.     xnew =  -7.50000E-10
                       err =  -0.11852    

bisec-opt.  iter =   3 xlo =  -1.50000E-09  xhi =  -7.50000E-10
                         x =  -7.50000E-10 xnew =  -1.12500E-09
                       err =  -0.11020    

bisec-opt.  iter =   4 xlo =  -1.12500E-09  xhi =  -7.50000E-10
                         x =  -1.12500E-09 xnew =  -9.37500E-10
                       err =   0.98100    

bisec-opt.  iter =   5 xlo =  -9.37500E-10  xhi =  -7.50000E-10
                         x =  -9.37500E-10 xnew =  -8.43750E-10
                       err =   7.89909E-02

bisec-opt.  iter =   6 xlo =  -9.37500E-10  xhi =  -8.43750E-10
                         x =  -8.43750E-10 xnew =  -8.90625E-10
                       err =  -8.20386E-02

bisec-opt.  iter =   7 xlo =  -9.37500E-10  xhi =  -8.90625E-10
                         x =  -8.90625E-10 xnew =  -9.14063E-10
                       err =  -3.36231E-02

bisec-opt.  iter =   8 xlo =  -9.14063E-10  xhi =  -8.90625E-10
                         x =  -9.14063E-10 xnew =  -9.02344E-10
                       err =   1.00875E-02

bisec-opt.  iter =   9 xlo =  -9.14063E-10  xhi =  -9.02344E-10
                         x =  -9.02344E-10 xnew =  -9.08203E-10
                       err =  -1.41583E-02

bisec-opt.  iter =  10 xlo =  -9.14063E-10  xhi =  -9.08203E-10
                         x =  -9.08203E-10 xnew =  -9.11133E-10
                       err =  -2.71519E-03

bisec-opt.  iter =  11 xlo =  -9.11133E-10  xhi =  -9.08203E-10
                         x =  -9.11133E-10 xnew =  -9.09668E-10
                       err =   3.50283E-03

bisec-opt.  iter =  12 xlo =  -9.09668E-10  xhi =  -9.08203E-10
                         x =  -9.09668E-10 xnew =  -9.08936E-10
                       err =   3.50917E-04

bisec-opt.  iter =  13 xlo =  -9.09668E-10  xhi =  -9.08936E-10
                         x =  -9.08936E-10 xnew =  -9.09302E-10
                       err =  -1.19297E-03

bisec-opt.  iter =  14 xlo =  -9.09668E-10  xhi =  -9.09302E-10
                         x =  -9.09302E-10 xnew =  -9.09485E-10
                       err =  -4.23767E-04

         optimization completed, the condition
         relin =  1.0000E-03 is satisfied

         optimization completed, the condition
         relout =  1.0000E-03 is satisfied


**** optimized parameters opthold         

.param hold          =-909.3018p      

 ******  Star-HSPICE  --    98.2  (980711)  02:53:17  01/09/2000  solaris      
******  
*      $id$                                                                   
 ******  operating point information      tnom=  25.000 temp= 100.000         
******  
***** operating point status is voltage   simulation time is     0.     
    node    =voltage       node    =voltage       node    =voltage


+ 0:clk     =   0.       0:d       =   2.9700   0:diff_1  =   2.9700 
+ 0:q       =  10.5280n  0:vclk    =   0.       0:vd      =   2.9700 
+ 0:vdd     =   2.9700   1:in1     =   8.5518n  1:in2     =   2.9700 
+ 1:nc1     = 612.8371   2:out1    =   0.       3:min     =   2.9700 
+ 3:mout    =  19.2292n  3:s       =   2.9700   3:s_n     =  10.5280n
+ 4:in1     =   8.5518n



 Opening plot unit= 15
file=./dff_2x.d.clk.q.h_3.tr0                                                 

******  
*      $id$                                                                   
 ******  transient analysis               tnom=  25.000 temp= 100.000         
******  
  hold_hl         = -7.0360E-09  targ=  8.0081E-11   trig=  7.1161E-09
  clkslew         =  3.9814E-11  targ=  7.1440E-09   trig=  7.1042E-09
  vcrit           =  2.3770E+00
  optpass         =  8.0034E-01
 Opening plot unit= 15
file=./dff_2x.d.clk.q.h_3.tr1                                                 

******  
*      $id$                                                                   
 ******  transient analysis               tnom=  25.000 temp= 100.000         
******  
  hold_hl         = -7.0354E-09  targ=  8.0715E-11   trig=  7.1161E-09
  clkslew         =  3.9814E-11  targ=  7.1440E-09   trig=  7.1042E-09
  vcrit           =  2.3770E+00
  optpass         =  8.0034E-01
  clk_q           =  5.5675E-10  targ=  7.6728E-09   trig=  7.1161E-09

         ***** job concluded
 ******  Star-HSPICE  --    98.2  (980711)  02:53:17  01/09/2000  solaris      
******  
*      $id$                                                                   
 ******  job statistics summary           tnom=  25.000 temp= 100.000         
******  

          total memory used        306 kbytes

 # nodes =    17 # elements=    35
 # diodes=     0 # bjts    =     0 # jfets   =     0 # mosfets =    22

    analysis      time      # points  tot. iter  conv.iter

    op point          2.39         1        83
    transient        37.66      2401     58480     15551 rev= 3006
    readin            0.23
    errchk            0.02
    setup             0.00
    output            0.01
          total cpu time         38.04 seconds
              job started at  02:53:17  01/09/2000
              job ended   at  02:53:55  01/09/2000


 ******  Star-HSPICE  --    98.2  (980711)  02:53:17  01/09/2000  solaris      
******  
                                                                              
 ******    alter processing listing       tnom=  25.000 temp= 100.000         
******  
.param slewrate = '7.99998e-11'
.alter
$ alter processing continues $
 ******  Star-HSPICE  --    98.2  (980711)  02:53:17  01/09/2000  solaris      
******  
*      $id$                                                                   
 ******  circuit name directory                                               
******  
circuit number to circuit name directory
number  circuitname                   definition        multiplier
    0 main circuit
    1 xdbuf.                          ebuffer            1.00 
    2 xclkbuf.                        slewbuffer         1.00 
    3 xflop.                          dff_2x             1.00 
    4 xdbuf.xload1.                   buffer             3.00 
    5 xflop.x1.                       xgate              1.00 
    6 xflop.x2.                       inv                1.00 
    7 xflop.x3.                       inv                1.00 
    8 xflop.x4.                       xgate              1.00 
    9 xflop.x5.                       inv                1.00 
   10 xflop.x6.                       inv                1.00 
   11 xflop.x7.                       inv                1.00 
 ******  Star-HSPICE  --    98.2  (980711)  02:53:17  01/09/2000  solaris      
******  
*      $id$                                                                   
 ******  mos   model parameters           tnom=  25.000 temp=  25.000         
******  
***************************************************************************
***        model parameters  model name:   0:nch      model type:nmos   ***
***************************************************************************

  *** general parameters ***
   deriv=   0.           

  ***  level 49  model parameters  ***

     hspver=       98.2               level=         49         
    version=        3.1            paramchk=          0         
     apwarn=          1             binUnit=          1         
     capMod=          2               xpart=          1         
     mobMod=          1              nqsMod=          0         
        elm=          5            sfvtflag=          0         
        tox=    7.6e-09 meter            xj=    1.5e-07 meter   
    binflag=          0                lmin=          0 meter   
       lmax=          0 meter          wmin=          0 meter   
       wmax=          0 meter          lref=          0 meter   
       wref=          0 meter          lint=1.73552e-09 meter   
       wint=7.18696e-08 meter         lmult=          1         
      wmult=          1                  ll=          0         
        lln=          1                  lw=          0         
        lwn=          1                 lwl=          0         
         wl=          0                 wln=          1         
         ww=          0                 wwn=          1         
        wwl=          0                 dwg=-1.71297e-08 m/V     
        dwb=5.85169e-09 m/V^1/2          a0=    1.13562         
        ags=   0.281037 V^-1             b0=2.84439e-07 meter   
         b1=      5e-06 meter          keta= -0.0078181 V^-1    
       voff=  -0.132935 V             ngate=          0 cm^-3   
        vbx=          0 V               vbm=         -3 V       
         xt=   1.55e-07 meter          vth0=   0.496445 V       
        nch=    1.7e+17 cm^-3          nsub=      6e+16 cm^-3   
        nlx= 2.8948e-07 meter        gamma1=          0 V^-1/2  
     gamma2=          0 V^-1/2           k1=   0.530777 V^1/2   
         k2=  0.0199705                  k3=   0.296364         
        k3b=   0.201216 V^-1             w0=2.83632e-06 meter   
       dvt0=   0.112017                dvt1=   0.245397         
       dvt2=  -0.171915 V^-1          dvt0w=          0 meter^-1
      dvt1w=    5.3e+06 meter^-1      dvt2w=     -0.032 V^-1    
       dsub=  0.0257957                eta0= 0.00212832         
       etab=          0 V^-1             u0=    444.938 cm^2/V/sec
         ua=2.92128e-10 m/V              ub=1.77328e-18 (m/V)^2 
         uc= 7.0679e-11 V^-1           vsat=     113078 m/sec   
         a1=          0 v^-1             a2=          1         
      delta=       0.01 V              rdsw=     925.27 ohm-um  
       prwg=     -0.001 V^-1           prwb=     -0.001 V^-1/2  
         wr=          1                pclm=   0.676631         
    pdiblc1=          1             pdiblc2= 0.00178742         
    pdiblcb=          0 V^-1         pscbe1=6.97348e+09 V/m     
     pscbe2=1.46235e-07 V/m           drout=   0.787354         
       pvag=       0.05             nfactor=   0.571097         
       cdsc=0.000860723 f/m^2         cdscb=          0 f/V/m^2 
      cdscd=          0 f/V/m^2         cit=          0 f/m^2   
     alpha0=          0 m/V           beta0=         30 V       
        dlc=1.73552e-09 meter           dwc=7.18696e-08 meter   
        clc=      1e-07 meter           cle=        0.6         
       cgso=   1.96e-10 f/m            cgdo=   1.96e-10 f/m     
       cgbo=          0 f/m            cgsl=          0 f/m     
       cgdl=          0 f/m          ckappa=        0.6         
         cf=8.75406e-11 f/m            tnom=     300.15 K       
        kt1=      -0.11 V              kt1l=          0         
        kt2=      0.022                 ute=       -1.5         
        ua1=   4.31e-09 m/V             ub1=  -7.61e-18 (m/V)^2 
        uc1=   -5.6e-11 m/V^2            at=      33000 m/s     
        prt=          0         
        using Berkeley noise model       noiMod=          1         
       noia=      1e+20                noib=      50000         
       noic=   -1.4e-12                  em=    4.1e+07         
         ef=          1                  af=          1         
         kf=          0         
        using Hspice diodes            using ACM 
        acm=         0                 hdif=         0 meter    
       ldif=         0 meter             js=         0 amp/m^2  
        jsw=         0 amp/m            xti=         0          
          n=         1                   cj=0.000927696 f/m^2    
         mj=   0.35577                   pb=  0.815796 V        
       cjsw=3.18106e-10 f/m             mjsw=       0.1          
        php=  0.815796 V               pbsw (not used)           
     cjgate=3.18106e-10 f/m            cjswg (not used)           
      mjswg (not used)                 pbswg (not used)           
      lketa= -0.0129496               wketa=-0.000764319         
      pvth0= -0.0252481                 pk2=-0.00480537         
      prdsw=   -96.4503         
***************************************************************************
***        model parameters  model name:   0:pch      model type:pmos   ***
***************************************************************************

  *** general parameters ***
   deriv=   0.           

  ***  level 49  model parameters  ***

     hspver=       98.2               level=         49         
    version=        3.1            paramchk=          0         
     apwarn=          1             binUnit=          1         
     capMod=          2               xpart=          1         
     mobMod=          1              nqsMod=          0         
        elm=          5            sfvtflag=          0         
        tox=    7.6e-09 meter            xj=    1.5e-07 meter   
    binflag=          0                lmin=          0 meter   
       lmax=          0 meter          wmin=          0 meter   
       wmax=          0 meter          lref=          0 meter   
       wref=          0 meter          lint=4.30928e-09 meter   
       wint=5.96223e-08 meter         lmult=          1         
      wmult=          1                  ll=          0         
        lln=          1                  lw=          0         
        lwn=          1                 lwl=          0         
         wl=          0                 wln=          1         
         ww=          0                 wwn=          1         
        wwl=          0                 dwg=-1.5962e-08 m/V     
        dwb=1.37892e-08 m/V^1/2          a0=    1.12101         
        ags=   0.396195 V^-1             b0=6.49314e-07 meter   
         b1=4.27322e-06 meter          keta=   -0.00927 V^-1    
       voff=      -0.15 V             ngate=          0 cm^-3   
        vbx=          0 V               vbm=         -3 V       
         xt=   1.55e-07 meter          vth0=  -0.663659 V       
        nch=    1.7e+17 cm^-3          nsub=      6e+16 cm^-3   
        nlx=1.51028e-07 meter        gamma1=          0 V^-1/2  
     gamma2=          0 V^-1/2           k1=   0.456478 V^1/2   
         k2=  -0.019447                  k3=    39.3829         
        k3b=    -2.8931 V^-1             w0=2.65558e-06 meter   
       dvt0=    1.17446                dvt1=   0.763113         
       dvt2=  -0.103517 V^-1          dvt0w=          0 meter^-1
      dvt1w=    5.3e+06 meter^-1      dvt2w=     -0.032 V^-1    
       dsub=   0.243603                eta0=  0.0286461         
       etab=          0 V^-1             u0=    151.331 cm^2/V/sec
         ua=2.06121e-10 m/V              ub=1.82348e-18 (m/V)^2 
         uc=-8.97321e-12 V^-1           vsat=      99156 m/sec   
         a1=          0 v^-1             a2=          1         
      delta=       0.01 V              rdsw=    2307.25 ohm-um  
       prwg=     -0.001 V^-1           prwb=          0 V^-1/2  
         wr=          1                pclm=    4.35975         
    pdiblc1=0.000744702             pdiblc2= 0.00425607         
    pdiblcb=          0 V^-1         pscbe1=1.34762e+10 V/m     
     pscbe2=      5e-09 V/m           drout=  0.0120292         
       pvag=    3.66979             nfactor=          2         
       cdsc=0.000659308 f/m^2         cdscb=          0 f/V/m^2 
      cdscd=          0 f/V/m^2         cit=          0 f/m^2   
     alpha0=          0 m/V           beta0=         30 V       
        dlc=4.30928e-09 meter           dwc=5.96223e-08 meter   
        clc=      1e-07 meter           cle=        0.6         
       cgso=  2.307e-10 f/m            cgdo=  2.307e-10 f/m     
       cgbo=          0 f/m            cgsl=          0 f/m     
       cgdl=          0 f/m          ckappa=        0.6         
         cf=8.75406e-11 f/m            tnom=     300.15 K       
        kt1=      -0.11 V              kt1l=          0         
        kt2=      0.022                 ute=       -1.5         
        ua1=   4.31e-09 m/V             ub1=  -7.61e-18 (m/V)^2 
        uc1=   -5.6e-11 m/V^2            at=      33000 m/s     
        prt=          0         
        using Berkeley noise model       noiMod=          1         
       noia=    9.9e+18                noib=       2400         
       noic=    1.4e-12                  em=    4.1e+07         
         ef=          1                  af=          1         
         kf=          0         
        using Hspice diodes            using ACM 
        acm=         0                 hdif=         0 meter    
       ldif=         0 meter             js=         0 amp/m^2  
        jsw=         0 amp/m            xti=         0          
          n=         1                   cj=0.00142028 f/m^2    
         mj=  0.549088                   pb=      0.99 V        
       cjsw=4.77361e-10 f/m             mjsw=  0.199742          
        php=      0.99 V               pbsw (not used)           
     cjgate=4.77361e-10 f/m            cjswg (not used)           
      mjswg (not used)                 pbswg (not used)           
      lketa= 0.00602797               wketa= -0.0101398         
      pvth0= 0.00658707                 pk2= 0.00101159         
      prdsw=   -93.5582         
 ******  Star-HSPICE  --    98.2  (980711)  02:53:17  01/09/2000  solaris      
******  
*      $id$                                                                   
 ******  optimize model parameters        tnom=  25.000 temp=  25.000         
******  
*********************************
***  model name:   0:optmod  ****
*********************************

    names  values   units     names  values   units     names  values   units
    -----  ------   -----     -----  ------   -----     -----  ------   -----
   level=   3.00             relin=   1.00m           relout=   1.00m        
    grad=   1.00u            close=   1.00               cut=   2.00         
     max= 600.00k           itropt=  20.00            cendif=   1.00n        
  difsiz=   1.00m           parmin= 100.00m        
 

**warning** both nodes of source     0:vgnd            
            are connected together


*** warning *** pulse rise time is  < or = zero, reset to tstep


*** warning *** pulse fall time is  < or = zero, reset to tstep

 Opening plot unit= 15
file=./dff_2x.d.clk.q.h_3.pa1                                                 



entering lmopt 
  parm names init guess, lower, upper bounds
hold               -1.5000E-09   -1.5000E-09        0.            0.    
**warning** negative-mos conductance =     4:mp3              iter=   38
vds,vgs,vbs =      -617.          2.97            0.    
 gm,gds,gmbs,ids=      223.          1.65         -5.39          33.4    
bisec-opt.  iter =   1 xlo =  -1.50000E-09  xhi =        0.    
                         x =  -1.50000E-09 xnew =        0.    
                       err =   0.99491    

bisec-opt.  iter =   2 xlo =  -1.50000E-09  xhi =        0.    
                         x =        0.     xnew =  -7.50000E-10
                       err =  -0.11243    

bisec-opt.  iter =   3 xlo =  -1.50000E-09  xhi =  -7.50000E-10
                         x =  -7.50000E-10 xnew =  -1.12500E-09
                       err =  -9.69099E-02

bisec-opt.  iter =   4 xlo =  -1.12500E-09  xhi =  -7.50000E-10
                         x =  -1.12500E-09 xnew =  -9.37500E-10
                       err =   0.99084    

bisec-opt.  iter =   5 xlo =  -9.37500E-10  xhi =  -7.50000E-10
                         x =  -9.37500E-10 xnew =  -8.43750E-10
                       err =   9.87688E-02

bisec-opt.  iter =   6 xlo =  -9.37500E-10  xhi =  -8.43750E-10
                         x =  -8.43750E-10 xnew =  -8.90625E-10
                       err =  -6.73166E-02

bisec-opt.  iter =   7 xlo =  -9.37500E-10  xhi =  -8.90625E-10
                         x =  -8.90625E-10 xnew =  -9.14063E-10
                       err =  -2.07070E-02

bisec-opt.  iter =   8 xlo =  -9.14063E-10  xhi =  -8.90625E-10
                         x =  -9.14063E-10 xnew =  -9.02344E-10
                       err =   2.35042E-02

bisec-opt.  iter =   9 xlo =  -9.14063E-10  xhi =  -9.02344E-10
                         x =  -9.02344E-10 xnew =  -9.08203E-10
                       err =  -1.10576E-03

bisec-opt.  iter =  10 xlo =  -9.08203E-10  xhi =  -9.02344E-10
                         x =  -9.08203E-10 xnew =  -9.05273E-10
                       err =   1.04672E-02

bisec-opt.  iter =  11 xlo =  -9.05273E-10  xhi =  -9.02344E-10
                         x =  -9.05273E-10 xnew =  -9.03809E-10
                       err =   4.51494E-03

bisec-opt.  iter =  12 xlo =  -9.03809E-10  xhi =  -9.02344E-10
                         x =  -9.03809E-10 xnew =  -9.03076E-10
                       err =   1.65498E-03

bisec-opt.  iter =  13 xlo =  -9.03076E-10  xhi =  -9.02344E-10
                         x =  -9.03076E-10 xnew =  -9.02710E-10
                       err =   2.64760E-04

bisec-opt.  iter =  14 xlo =  -9.03076E-10  xhi =  -9.02710E-10
                         x =  -9.02710E-10 xnew =  -9.02893E-10
                       err =  -4.22994E-04

         optimization completed, the condition
         relin =  1.0000E-03 is satisfied

         optimization completed, the condition
         relout =  1.0000E-03 is satisfied


**** optimized parameters opthold         

.param hold          =-902.7100p      

 ******  Star-HSPICE  --    98.2  (980711)  02:53:17  01/09/2000  solaris      
******  
*      $id$                                                                   
 ******  operating point information      tnom=  25.000 temp= 100.000         
******  
***** operating point status is voltage   simulation time is     0.     
    node    =voltage       node    =voltage       node    =voltage


+ 0:clk     =   0.       0:d       =   2.9700   0:diff_1  =   2.9700 
+ 0:q       =  10.5280n  0:vclk    =   0.       0:vd      =   2.9700 
+ 0:vdd     =   2.9700   1:in1     =   8.5518n  1:in2     =   2.9700 
+ 1:nc1     = 612.8371   2:out1    =   0.       3:min     =   2.9700 
+ 3:mout    =  19.2292n  3:s       =   2.9700   3:s_n     =  10.5280n
+ 4:in1     =   8.5518n



 Opening plot unit= 15
file=./dff_2x.d.clk.q.h_3.tr2                                                 

******  
*      $id$                                                                   
 ******  transient analysis               tnom=  25.000 temp= 100.000         
******  
  hold_hl         = -7.0486E-09  targ=  8.0081E-11   trig=  7.1287E-09
  clkslew         =  7.9488E-11  targ=  7.1858E-09   trig=  7.1063E-09
  vcrit           =  2.3770E+00
  optpass         =  8.0034E-01
 Opening plot unit= 15
file=./dff_2x.d.clk.q.h_3.tr3                                                 

******  
*      $id$                                                                   
 ******  transient analysis               tnom=  25.000 temp= 100.000         
******  
  hold_hl         = -7.0480E-09  targ=  8.0715E-11   trig=  7.1287E-09
  clkslew         =  7.9488E-11  targ=  7.1858E-09   trig=  7.1063E-09
  vcrit           =  2.3770E+00
  optpass         =  8.0034E-01
  clk_q           =  5.6511E-10  targ=  7.6938E-09   trig=  7.1287E-09

         ***** job concluded
 ******  Star-HSPICE  --    98.2  (980711)  02:53:17  01/09/2000  solaris      
******  
*      $id$                                                                   
 ******  job statistics summary           tnom=  25.000 temp= 100.000         
******  

          total memory used        306 kbytes

 # nodes =    17 # elements=    35
 # diodes=     0 # bjts    =     0 # jfets   =     0 # mosfets =    22

    analysis      time      # points  tot. iter  conv.iter

    op point          2.35         1        83
    transient        36.69      2401     57829     15269 rev= 2909
    readin            0.06
    errchk            0.02
    setup             0.00
    output            0.01
          total cpu time         36.88 seconds
              job started at  02:53:17  01/09/2000
              job ended   at  02:54:32  01/09/2000


 ******  Star-HSPICE  --    98.2  (980711)  02:53:17  01/09/2000  solaris      
******  
                                                                              
 ******    alter processing listing       tnom=  25.000 temp= 100.000         
******  
.param slewrate = '1.2e-10'
.alter
$ alter processing continues $
 ******  Star-HSPICE  --    98.2  (980711)  02:53:17  01/09/2000  solaris      
******  
*      $id$                                                                   
 ******  circuit name directory                                               
******  
circuit number to circuit name directory
number  circuitname                   definition        multiplier
    0 main circuit
    1 xdbuf.                          ebuffer            1.00 
    2 xclkbuf.                        slewbuffer         1.00 
    3 xflop.                          dff_2x             1.00 
    4 xdbuf.xload1.                   buffer             3.00 
    5 xflop.x1.                       xgate              1.00 
    6 xflop.x2.                       inv                1.00 
    7 xflop.x3.                       inv                1.00 
    8 xflop.x4.                       xgate              1.00 
    9 xflop.x5.                       inv                1.00 
   10 xflop.x6.                       inv                1.00 
   11 xflop.x7.                       inv                1.00 
 ******  Star-HSPICE  --    98.2  (980711)  02:53:17  01/09/2000  solaris      
******  
*      $id$                                                                   
 ******  mos   model parameters           tnom=  25.000 temp=  25.000         
******  
***************************************************************************
***        model parameters  model name:   0:nch      model type:nmos   ***
***************************************************************************

  *** general parameters ***
   deriv=   0.           

  ***  level 49  model parameters  ***

     hspver=       98.2               level=         49         
    version=        3.1            paramchk=          0         
     apwarn=          1             binUnit=          1         
     capMod=          2               xpart=          1         
     mobMod=          1              nqsMod=          0         
        elm=          5            sfvtflag=          0         
        tox=    7.6e-09 meter            xj=    1.5e-07 meter   
    binflag=          0                lmin=          0 meter   
       lmax=          0 meter          wmin=          0 meter   
       wmax=          0 meter          lref=          0 meter   
       wref=          0 meter          lint=1.73552e-09 meter   
       wint=7.18696e-08 meter         lmult=          1         
      wmult=          1                  ll=          0         
        lln=          1                  lw=          0         
        lwn=          1                 lwl=          0         
         wl=          0                 wln=          1         
         ww=          0                 wwn=          1         
        wwl=          0                 dwg=-1.71297e-08 m/V     
        dwb=5.85169e-09 m/V^1/2          a0=    1.13562         
        ags=   0.281037 V^-1             b0=2.84439e-07 meter   
         b1=      5e-06 meter          keta= -0.0078181 V^-1    
       voff=  -0.132935 V             ngate=          0 cm^-3   
        vbx=          0 V               vbm=         -3 V       
         xt=   1.55e-07 meter          vth0=   0.496445 V       
        nch=    1.7e+17 cm^-3          nsub=      6e+16 cm^-3   
        nlx= 2.8948e-07 meter        gamma1=          0 V^-1/2  
     gamma2=          0 V^-1/2           k1=   0.530777 V^1/2   
         k2=  0.0199705                  k3=   0.296364         
        k3b=   0.201216 V^-1             w0=2.83632e-06 meter   
       dvt0=   0.112017                dvt1=   0.245397         
       dvt2=  -0.171915 V^-1          dvt0w=          0 meter^-1
      dvt1w=    5.3e+06 meter^-1      dvt2w=     -0.032 V^-1    
       dsub=  0.0257957                eta0= 0.00212832         
       etab=          0 V^-1             u0=    444.938 cm^2/V/sec
         ua=2.92128e-10 m/V              ub=1.77328e-18 (m/V)^2 
         uc= 7.0679e-11 V^-1           vsat=     113078 m/sec   
         a1=          0 v^-1             a2=          1         
      delta=       0.01 V              rdsw=     925.27 ohm-um  
       prwg=     -0.001 V^-1           prwb=     -0.001 V^-1/2  
         wr=          1                pclm=   0.676631         
    pdiblc1=          1             pdiblc2= 0.00178742         
    pdiblcb=          0 V^-1         pscbe1=6.97348e+09 V/m     
     pscbe2=1.46235e-07 V/m           drout=   0.787354         
       pvag=       0.05             nfactor=   0.571097         
       cdsc=0.000860723 f/m^2         cdscb=          0 f/V/m^2 
      cdscd=          0 f/V/m^2         cit=          0 f/m^2   
     alpha0=          0 m/V           beta0=         30 V       
        dlc=1.73552e-09 meter           dwc=7.18696e-08 meter   
        clc=      1e-07 meter           cle=        0.6         
       cgso=   1.96e-10 f/m            cgdo=   1.96e-10 f/m     
       cgbo=          0 f/m            cgsl=          0 f/m     
       cgdl=          0 f/m          ckappa=        0.6         
         cf=8.75406e-11 f/m            tnom=     300.15 K       
        kt1=      -0.11 V              kt1l=          0         
        kt2=      0.022                 ute=       -1.5         
        ua1=   4.31e-09 m/V             ub1=  -7.61e-18 (m/V)^2 
        uc1=   -5.6e-11 m/V^2            at=      33000 m/s     
        prt=          0         
        using Berkeley noise model       noiMod=          1         
       noia=      1e+20                noib=      50000         
       noic=   -1.4e-12                  em=    4.1e+07         
         ef=          1                  af=          1         
         kf=          0         
        using Hspice diodes            using ACM 
        acm=         0                 hdif=         0 meter    
       ldif=         0 meter             js=         0 amp/m^2  
        jsw=         0 amp/m            xti=         0          
          n=         1                   cj=0.000927696 f/m^2    
         mj=   0.35577                   pb=  0.815796 V        
       cjsw=3.18106e-10 f/m             mjsw=       0.1          
        php=  0.815796 V               pbsw (not used)           
     cjgate=3.18106e-10 f/m            cjswg (not used)           
      mjswg (not used)                 pbswg (not used)           
      lketa= -0.0129496               wketa=-0.000764319         
      pvth0= -0.0252481                 pk2=-0.00480537         
      prdsw=   -96.4503         
***************************************************************************
***        model parameters  model name:   0:pch      model type:pmos   ***
***************************************************************************

  *** general parameters ***
   deriv=   0.           

  ***  level 49  model parameters  ***

     hspver=       98.2               level=         49         
    version=        3.1            paramchk=          0         
     apwarn=          1             binUnit=          1         
     capMod=          2               xpart=          1         
     mobMod=          1              nqsMod=          0         
        elm=          5            sfvtflag=          0         
        tox=    7.6e-09 meter            xj=    1.5e-07 meter   
    binflag=          0                lmin=          0 meter   
       lmax=          0 meter          wmin=          0 meter   
       wmax=          0 meter          lref=          0 meter   
       wref=          0 meter          lint=4.30928e-09 meter   
       wint=5.96223e-08 meter         lmult=          1         
      wmult=          1                  ll=          0         
        lln=          1                  lw=          0         
        lwn=          1                 lwl=          0         
         wl=          0                 wln=          1         
         ww=          0                 wwn=          1         
        wwl=          0                 dwg=-1.5962e-08 m/V     
        dwb=1.37892e-08 m/V^1/2          a0=    1.12101         
        ags=   0.396195 V^-1             b0=6.49314e-07 meter   
         b1=4.27322e-06 meter          keta=   -0.00927 V^-1    
       voff=      -0.15 V             ngate=          0 cm^-3   
        vbx=          0 V               vbm=         -3 V       
         xt=   1.55e-07 meter          vth0=  -0.663659 V       
        nch=    1.7e+17 cm^-3          nsub=      6e+16 cm^-3   
        nlx=1.51028e-07 meter        gamma1=          0 V^-1/2  
     gamma2=          0 V^-1/2           k1=   0.456478 V^1/2   
         k2=  -0.019447                  k3=    39.3829         
        k3b=    -2.8931 V^-1             w0=2.65558e-06 meter   
       dvt0=    1.17446                dvt1=   0.763113         
       dvt2=  -0.103517 V^-1          dvt0w=          0 meter^-1
      dvt1w=    5.3e+06 meter^-1      dvt2w=     -0.032 V^-1    
       dsub=   0.243603                eta0=  0.0286461         
       etab=          0 V^-1             u0=    151.331 cm^2/V/sec
         ua=2.06121e-10 m/V              ub=1.82348e-18 (m/V)^2 
         uc=-8.97321e-12 V^-1           vsat=      99156 m/sec   
         a1=          0 v^-1             a2=          1         
      delta=       0.01 V              rdsw=    2307.25 ohm-um  
       prwg=     -0.001 V^-1           prwb=          0 V^-1/2  
         wr=          1                pclm=    4.35975         
    pdiblc1=0.000744702             pdiblc2= 0.00425607         
    pdiblcb=          0 V^-1         pscbe1=1.34762e+10 V/m     
     pscbe2=      5e-09 V/m           drout=  0.0120292         
       pvag=    3.66979             nfactor=          2         
       cdsc=0.000659308 f/m^2         cdscb=          0 f/V/m^2 
      cdscd=          0 f/V/m^2         cit=          0 f/m^2   
     alpha0=          0 m/V           beta0=         30 V       
        dlc=4.30928e-09 meter           dwc=5.96223e-08 meter   
        clc=      1e-07 meter           cle=        0.6         
       cgso=  2.307e-10 f/m            cgdo=  2.307e-10 f/m     
       cgbo=          0 f/m            cgsl=          0 f/m     
       cgdl=          0 f/m          ckappa=        0.6         
         cf=8.75406e-11 f/m            tnom=     300.15 K       
        kt1=      -0.11 V              kt1l=          0         
        kt2=      0.022                 ute=       -1.5         
        ua1=   4.31e-09 m/V             ub1=  -7.61e-18 (m/V)^2 
        uc1=   -5.6e-11 m/V^2            at=      33000 m/s     
        prt=          0         
        using Berkeley noise model       noiMod=          1         
       noia=    9.9e+18                noib=       2400         
       noic=    1.4e-12                  em=    4.1e+07         
         ef=          1                  af=          1         
         kf=          0         
        using Hspice diodes            using ACM 
        acm=         0                 hdif=         0 meter    
       ldif=         0 meter             js=         0 amp/m^2  
        jsw=         0 amp/m            xti=         0          
          n=         1                   cj=0.00142028 f/m^2    
         mj=  0.549088                   pb=      0.99 V        
       cjsw=4.77361e-10 f/m             mjsw=  0.199742          
        php=      0.99 V               pbsw (not used)           
     cjgate=4.77361e-10 f/m            cjswg (not used)           
      mjswg (not used)                 pbswg (not used)           
      lketa= 0.00602797               wketa= -0.0101398         
      pvth0= 0.00658707                 pk2= 0.00101159         
      prdsw=   -93.5582         
 ******  Star-HSPICE  --    98.2  (980711)  02:53:17  01/09/2000  solaris      
******  
*      $id$                                                                   
 ******  optimize model parameters        tnom=  25.000 temp=  25.000         
******  
*********************************
***  model name:   0:optmod  ****
*********************************

    names  values   units     names  values   units     names  values   units
    -----  ------   -----     -----  ------   -----     -----  ------   -----
   level=   3.00             relin=   1.00m           relout=   1.00m        
    grad=   1.00u            close=   1.00               cut=   2.00         
     max= 600.00k           itropt=  20.00            cendif=   1.00n        
  difsiz=   1.00m           parmin= 100.00m        
 

**warning** both nodes of source     0:vgnd            
            are connected together


*** warning *** pulse rise time is  < or = zero, reset to tstep


*** warning *** pulse fall time is  < or = zero, reset to tstep

 Opening plot unit= 15
file=./dff_2x.d.clk.q.h_3.pa2                                                 



entering lmopt 
  parm names init guess, lower, upper bounds
hold               -1.5000E-09   -1.5000E-09        0.            0.    
**warning** negative-mos conductance =     4:mp3              iter=   38
vds,vgs,vbs =      -617.          2.97            0.    
 gm,gds,gmbs,ids=      223.          1.65         -5.39          33.4    
bisec-opt.  iter =   1 xlo =  -1.50000E-09  xhi =        0.    
                         x =  -1.50000E-09 xnew =        0.    
                       err =   0.99730    

bisec-opt.  iter =   2 xlo =  -1.50000E-09  xhi =        0.    
                         x =        0.     xnew =  -7.50000E-10
                       err =  -0.10897    

bisec-opt.  iter =   3 xlo =  -1.50000E-09  xhi =  -7.50000E-10
                         x =  -7.50000E-10 xnew =  -1.12500E-09
                       err =  -9.10603E-02

bisec-opt.  iter =   4 xlo =  -1.12500E-09  xhi =  -7.50000E-10
                         x =  -1.12500E-09 xnew =  -9.37500E-10
                       err =   0.99471    

bisec-opt.  iter =   5 xlo =  -9.37500E-10  xhi =  -7.50000E-10
                         x =  -9.37500E-10 xnew =  -8.43750E-10
                       err =   8.55102E-02

bisec-opt.  iter =   6 xlo =  -9.37500E-10  xhi =  -8.43750E-10
                         x =  -8.43750E-10 xnew =  -8.90625E-10
                       err =  -6.42222E-02

bisec-opt.  iter =   7 xlo =  -9.37500E-10  xhi =  -8.90625E-10
                         x =  -8.90625E-10 xnew =  -9.14063E-10
                       err =  -2.44293E-02

bisec-opt.  iter =   8 xlo =  -9.14063E-10  xhi =  -8.90625E-10
                         x =  -9.14063E-10 xnew =  -9.02344E-10
                       err =   1.50948E-02

bisec-opt.  iter =   9 xlo =  -9.14063E-10  xhi =  -9.02344E-10
                         x =  -9.02344E-10 xnew =  -9.08203E-10
                       err =  -7.06363E-03

bisec-opt.  iter =  10 xlo =  -9.08203E-10  xhi =  -9.02344E-10
                         x =  -9.08203E-10 xnew =  -9.05273E-10
                       err =   3.32055E-03

bisec-opt.  iter =  11 xlo =  -9.08203E-10  xhi =  -9.05273E-10
                         x =  -9.05273E-10 xnew =  -9.06738E-10
                       err =  -2.03008E-03

bisec-opt.  iter =  12 xlo =  -9.06738E-10  xhi =  -9.05273E-10
                         x =  -9.06738E-10 xnew =  -9.06006E-10
                       err =   6.03954E-04

bisec-opt.  iter =  13 xlo =  -9.06738E-10  xhi =  -9.06006E-10
                         x =  -9.06006E-10 xnew =  -9.06372E-10
                       err =  -7.23165E-04

         optimization completed, the condition
         relin =  1.0000E-03 is satisfied

         optimization completed, the condition
         relout =  1.0000E-03 is satisfied


**** optimized parameters opthold         

.param hold          =-906.0059p      

 ******  Star-HSPICE  --    98.2  (980711)  02:53:17  01/09/2000  solaris      
******  
*      $id$                                                                   
 ******  operating point information      tnom=  25.000 temp= 100.000         
******  
***** operating point status is voltage   simulation time is     0.     
    node    =voltage       node    =voltage       node    =voltage


+ 0:clk     =   0.       0:d       =   2.9700   0:diff_1  =   2.9700 
+ 0:q       =  10.5280n  0:vclk    =   0.       0:vd      =   2.9700 
+ 0:vdd     =   2.9700   1:in1     =   8.5518n  1:in2     =   2.9700 
+ 1:nc1     = 613.3571   2:out1    =   0.       3:min     =   2.9700 
+ 3:mout    =  19.2292n  3:s       =   2.9700   3:s_n     =  10.5280n
+ 4:in1     =   8.5518n



 Opening plot unit= 15
file=./dff_2x.d.clk.q.h_3.tr4                                                 

******  
*      $id$                                                                   
 ******  transient analysis               tnom=  25.000 temp= 100.000         
******  
  hold_hl         = -7.0617E-09  targ=  7.9496E-11   trig=  7.1412E-09
  clkslew         =  1.1870E-10  targ=  7.2269E-09   trig=  7.1082E-09
  vcrit           =  2.3777E+00
  optpass         =  8.0058E-01
 Opening plot unit= 15
file=./dff_2x.d.clk.q.h_3.tr5                                                 

******  
*      $id$                                                                   
 ******  transient analysis               tnom=  25.000 temp= 100.000         
******  
  hold_hl         = -7.0611E-09  targ=  8.0081E-11   trig=  7.1412E-09
  clkslew         =  1.1870E-10  targ=  7.2269E-09   trig=  7.1082E-09
  vcrit           =  2.3777E+00
  optpass         =  8.0058E-01
  clk_q           =  5.8214E-10  targ=  7.7233E-09   trig=  7.1412E-09

         ***** job concluded
 ******  Star-HSPICE  --    98.2  (980711)  02:53:17  01/09/2000  solaris      
******  
*      $id$                                                                   
 ******  job statistics summary           tnom=  25.000 temp= 100.000         
******  

          total memory used        306 kbytes

 # nodes =    17 # elements=    35
 # diodes=     0 # bjts    =     0 # jfets   =     0 # mosfets =    22

    analysis      time      # points  tot. iter  conv.iter

    op point          2.58         1        80
    transient        35.03      2401     54118     14285 rev= 2714
    readin            0.06
    errchk            0.02
    setup             0.00
    output            0.01
          total cpu time         35.22 seconds
              job started at  02:53:17  01/09/2000
              job ended   at  02:55:08  01/09/2000


 ******  Star-HSPICE  --    98.2  (980711)  02:53:17  01/09/2000  solaris      
******  
                                                                              
 ******    alter processing listing       tnom=  25.000 temp= 100.000         
******  
.param slewrate = '1.600002e-10'
.alter
$ alter processing continues $
 ******  Star-HSPICE  --    98.2  (980711)  02:53:17  01/09/2000  solaris      
******  
*      $id$                                                                   
 ******  circuit name directory                                               
******  
circuit number to circuit name directory
number  circuitname                   definition        multiplier
    0 main circuit
    1 xdbuf.                          ebuffer            1.00 
    2 xclkbuf.                        slewbuffer         1.00 
    3 xflop.                          dff_2x             1.00 
    4 xdbuf.xload1.                   buffer             3.00 
    5 xflop.x1.                       xgate              1.00 
    6 xflop.x2.                       inv                1.00 
    7 xflop.x3.                       inv                1.00 
    8 xflop.x4.                       xgate              1.00 
    9 xflop.x5.                       inv                1.00 
   10 xflop.x6.                       inv                1.00 
   11 xflop.x7.                       inv                1.00 
 ******  Star-HSPICE  --    98.2  (980711)  02:53:17  01/09/2000  solaris      
******  
*      $id$                                                                   
 ******  mos   model parameters           tnom=  25.000 temp=  25.000         
******  
***************************************************************************
***        model parameters  model name:   0:nch      model type:nmos   ***
***************************************************************************

  *** general parameters ***
   deriv=   0.           

  ***  level 49  model parameters  ***

     hspver=       98.2               level=         49         
    version=        3.1            paramchk=          0         
     apwarn=          1             binUnit=          1         
     capMod=          2               xpart=          1         
     mobMod=          1              nqsMod=          0         
        elm=          5            sfvtflag=          0         
        tox=    7.6e-09 meter            xj=    1.5e-07 meter   
    binflag=          0                lmin=          0 meter   
       lmax=          0 meter          wmin=          0 meter   
       wmax=          0 meter          lref=          0 meter   
       wref=          0 meter          lint=1.73552e-09 meter   
       wint=7.18696e-08 meter         lmult=          1         
      wmult=          1                  ll=          0         
        lln=          1                  lw=          0         
        lwn=          1                 lwl=          0         
         wl=          0                 wln=          1         
         ww=          0                 wwn=          1         
        wwl=          0                 dwg=-1.71297e-08 m/V     
        dwb=5.85169e-09 m/V^1/2          a0=    1.13562         
        ags=   0.281037 V^-1             b0=2.84439e-07 meter   
         b1=      5e-06 meter          keta= -0.0078181 V^-1    
       voff=  -0.132935 V             ngate=          0 cm^-3   
        vbx=          0 V               vbm=         -3 V       
         xt=   1.55e-07 meter          vth0=   0.496445 V       
        nch=    1.7e+17 cm^-3          nsub=      6e+16 cm^-3   
        nlx= 2.8948e-07 meter        gamma1=          0 V^-1/2  
     gamma2=          0 V^-1/2           k1=   0.530777 V^1/2   
         k2=  0.0199705                  k3=   0.296364         
        k3b=   0.201216 V^-1             w0=2.83632e-06 meter   
       dvt0=   0.112017                dvt1=   0.245397         
       dvt2=  -0.171915 V^-1          dvt0w=          0 meter^-1
      dvt1w=    5.3e+06 meter^-1      dvt2w=     -0.032 V^-1    
       dsub=  0.0257957                eta0= 0.00212832         
       etab=          0 V^-1             u0=    444.938 cm^2/V/sec
         ua=2.92128e-10 m/V              ub=1.77328e-18 (m/V)^2 
         uc= 7.0679e-11 V^-1           vsat=     113078 m/sec   
         a1=          0 v^-1             a2=          1         
      delta=       0.01 V              rdsw=     925.27 ohm-um  
       prwg=     -0.001 V^-1           prwb=     -0.001 V^-1/2  
         wr=          1                pclm=   0.676631         
    pdiblc1=          1             pdiblc2= 0.00178742         
    pdiblcb=          0 V^-1         pscbe1=6.97348e+09 V/m     
     pscbe2=1.46235e-07 V/m           drout=   0.787354         
       pvag=       0.05             nfactor=   0.571097         
       cdsc=0.000860723 f/m^2         cdscb=          0 f/V/m^2 
      cdscd=          0 f/V/m^2         cit=          0 f/m^2   
     alpha0=          0 m/V           beta0=         30 V       
        dlc=1.73552e-09 meter           dwc=7.18696e-08 meter   
        clc=      1e-07 meter           cle=        0.6         
       cgso=   1.96e-10 f/m            cgdo=   1.96e-10 f/m     
       cgbo=          0 f/m            cgsl=          0 f/m     
       cgdl=          0 f/m          ckappa=        0.6         
         cf=8.75406e-11 f/m            tnom=     300.15 K       
        kt1=      -0.11 V              kt1l=          0         
        kt2=      0.022                 ute=       -1.5         
        ua1=   4.31e-09 m/V             ub1=  -7.61e-18 (m/V)^2 
        uc1=   -5.6e-11 m/V^2            at=      33000 m/s     
        prt=          0         
        using Berkeley noise model       noiMod=          1         
       noia=      1e+20                noib=      50000         
       noic=   -1.4e-12                  em=    4.1e+07         
         ef=          1                  af=          1         
         kf=          0         
        using Hspice diodes            using ACM 
        acm=         0                 hdif=         0 meter    
       ldif=         0 meter             js=         0 amp/m^2  
        jsw=         0 amp/m            xti=         0          
          n=         1                   cj=0.000927696 f/m^2    
         mj=   0.35577                   pb=  0.815796 V        
       cjsw=3.18106e-10 f/m             mjsw=       0.1          
        php=  0.815796 V               pbsw (not used)           
     cjgate=3.18106e-10 f/m            cjswg (not used)           
      mjswg (not used)                 pbswg (not used)           
      lketa= -0.0129496               wketa=-0.000764319         
      pvth0= -0.0252481                 pk2=-0.00480537         
      prdsw=   -96.4503         
***************************************************************************
***        model parameters  model name:   0:pch      model type:pmos   ***
***************************************************************************

  *** general parameters ***
   deriv=   0.           

  ***  level 49  model parameters  ***

     hspver=       98.2               level=         49         
    version=        3.1            paramchk=          0         
     apwarn=          1             binUnit=          1         
     capMod=          2               xpart=          1         
     mobMod=          1              nqsMod=          0         
        elm=          5            sfvtflag=          0         
        tox=    7.6e-09 meter            xj=    1.5e-07 meter   
    binflag=          0                lmin=          0 meter   
       lmax=          0 meter          wmin=          0 meter   
       wmax=          0 meter          lref=          0 meter   
       wref=          0 meter          lint=4.30928e-09 meter   
       wint=5.96223e-08 meter         lmult=          1         
      wmult=          1                  ll=          0         
        lln=          1                  lw=          0         
        lwn=          1                 lwl=          0         
         wl=          0                 wln=          1         
         ww=          0                 wwn=          1         
        wwl=          0                 dwg=-1.5962e-08 m/V     
        dwb=1.37892e-08 m/V^1/2          a0=    1.12101         
        ags=   0.396195 V^-1             b0=6.49314e-07 meter   
         b1=4.27322e-06 meter          keta=   -0.00927 V^-1    
       voff=      -0.15 V             ngate=          0 cm^-3   
        vbx=          0 V               vbm=         -3 V       
         xt=   1.55e-07 meter          vth0=  -0.663659 V       
        nch=    1.7e+17 cm^-3          nsub=      6e+16 cm^-3   
        nlx=1.51028e-07 meter        gamma1=          0 V^-1/2  
     gamma2=          0 V^-1/2           k1=   0.456478 V^1/2   
         k2=  -0.019447                  k3=    39.3829         
        k3b=    -2.8931 V^-1             w0=2.65558e-06 meter   
       dvt0=    1.17446                dvt1=   0.763113         
       dvt2=  -0.103517 V^-1          dvt0w=          0 meter^-1
      dvt1w=    5.3e+06 meter^-1      dvt2w=     -0.032 V^-1    
       dsub=   0.243603                eta0=  0.0286461         
       etab=          0 V^-1             u0=    151.331 cm^2/V/sec
         ua=2.06121e-10 m/V              ub=1.82348e-18 (m/V)^2 
         uc=-8.97321e-12 V^-1           vsat=      99156 m/sec   
         a1=          0 v^-1             a2=          1         
      delta=       0.01 V              rdsw=    2307.25 ohm-um  
       prwg=     -0.001 V^-1           prwb=          0 V^-1/2  
         wr=          1                pclm=    4.35975         
    pdiblc1=0.000744702             pdiblc2= 0.00425607         
    pdiblcb=          0 V^-1         pscbe1=1.34762e+10 V/m     
     pscbe2=      5e-09 V/m           drout=  0.0120292         
       pvag=    3.66979             nfactor=          2         
       cdsc=0.000659308 f/m^2         cdscb=          0 f/V/m^2 
      cdscd=          0 f/V/m^2         cit=          0 f/m^2   
     alpha0=          0 m/V           beta0=         30 V       
        dlc=4.30928e-09 meter           dwc=5.96223e-08 meter   
        clc=      1e-07 meter           cle=        0.6         
       cgso=  2.307e-10 f/m            cgdo=  2.307e-10 f/m     
       cgbo=          0 f/m            cgsl=          0 f/m     
       cgdl=          0 f/m          ckappa=        0.6         
         cf=8.75406e-11 f/m            tnom=     300.15 K       
        kt1=      -0.11 V              kt1l=          0         
        kt2=      0.022                 ute=       -1.5         
        ua1=   4.31e-09 m/V             ub1=  -7.61e-18 (m/V)^2 
        uc1=   -5.6e-11 m/V^2            at=      33000 m/s     
        prt=          0         
[...]
 ******  job statistics summary           tnom=  25.000 temp= 100.000         
******  

          total memory used        306 kbytes

 # nodes =    17 # elements=    35
 # diodes=     0 # bjts    =     0 # jfets   =     0 # mosfets =    22

    analysis      time      # points  tot. iter  conv.iter

    op point          2.57         1        80
    transient        34.69      2401     54187     14292 rev= 2718
    readin            0.06
    errchk            0.02
    setup             0.00
    output            0.01
          total cpu time         34.88 seconds
              job started at  02:53:17  01/09/2000
              job ended   at  02:55:43  01/09/2000


 ******  Star-HSPICE  --    98.2  (980711)  02:53:17  01/09/2000  solaris      
******  
                                                                              
 ******    alter processing listing       tnom=  25.000 temp= 100.000         
******  
.param slewrate = '3.19998e-10'
.end
$ end of alter processing $
 ******  Star-HSPICE  --    98.2  (980711)  02:53:17  01/09/2000  solaris      
******  
*      $id$                                                                   
 ******  circuit name directory                                               
******  
circuit number to circuit name directory
number  circuitname                   definition        multiplier
    0 main circuit
    1 xdbuf.                          ebuffer            1.00 
    2 xclkbuf.                        slewbuffer         1.00 
    3 xflop.                          dff_2x             1.00 
    4 xdbuf.xload1.                   buffer             3.00 
    5 xflop.x1.                       xgate              1.00 
    6 xflop.x2.                       inv                1.00 
    7 xflop.x3.                       inv                1.00 
    8 xflop.x4.                       xgate              1.00 
    9 xflop.x5.                       inv                1.00 
   10 xflop.x6.                       inv                1.00 
   11 xflop.x7.                       inv                1.00 
 ******  Star-HSPICE  --    98.2  (980711)  02:53:17  01/09/2000  solaris      
******  
*      $id$                                                                   
 ******  mos   model parameters           tnom=  25.000 temp=  25.000         
******  
***************************************************************************
***        model parameters  model name:   0:nch      model type:nmos   ***
***************************************************************************

  *** general parameters ***
   deriv=   0.           

  ***  level 49  model parameters  ***

     hspver=       98.2               level=         49         
    version=        3.1            paramchk=          0         
     apwarn=          1             binUnit=          1         
     capMod=          2               xpart=          1         
     mobMod=          1              nqsMod=          0         
        elm=          5            sfvtflag=          0         
        tox=    7.6e-09 meter            xj=    1.5e-07 meter   
    binflag=          0                lmin=          0 meter   
       lmax=          0 meter          wmin=          0 meter   
       wmax=          0 meter          lref=          0 meter   
       wref=          0 meter          lint=1.73552e-09 meter   
       wint=7.18696e-08 meter         lmult=          1         
      wmult=          1                  ll=          0         
        lln=          1                  lw=          0         
        lwn=          1                 lwl=          0         
         wl=          0                 wln=          1         
         ww=          0                 wwn=          1         
        wwl=          0                 dwg=-1.71297e-08 m/V     
        dwb=5.85169e-09 m/V^1/2          a0=    1.13562         
        ags=   0.281037 V^-1             b0=2.84439e-07 meter   
         b1=      5e-06 meter          keta= -0.0078181 V^-1    
       voff=  -0.132935 V             ngate=          0 cm^-3   
        vbx=          0 V               vbm=         -3 V       
         xt=   1.55e-07 meter          vth0=   0.496445 V       
        nch=    1.7e+17 cm^-3          nsub=      6e+16 cm^-3   
        nlx= 2.8948e-07 meter        gamma1=          0 V^-1/2  
     gamma2=          0 V^-1/2           k1=   0.530777 V^1/2   
         k2=  0.0199705                  k3=   0.296364         
        k3b=   0.201216 V^-1             w0=2.83632e-06 meter   
       dvt0=   0.112017                dvt1=   0.245397         
       dvt2=  -0.171915 V^-1          dvt0w=          0 meter^-1
      dvt1w=    5.3e+06 meter^-1      dvt2w=     -0.032 V^-1    
       dsub=  0.0257957                eta0= 0.00212832         
       etab=          0 V^-1             u0=    444.938 cm^2/V/sec
         ua=2.92128e-10 m/V              ub=1.77328e-18 (m/V)^2 
         uc= 7.0679e-11 V^-1           vsat=     113078 m/sec   
         a1=          0 v^-1             a2=          1         
      delta=       0.01 V              rdsw=     925.27 ohm-um  
       prwg=     -0.001 V^-1           prwb=     -0.001 V^-1/2  
         wr=          1                pclm=   0.676631         
    pdiblc1=          1             pdiblc2= 0.00178742         
    pdiblcb=          0 V^-1         pscbe1=6.97348e+09 V/m     
     pscbe2=1.46235e-07 V/m           drout=   0.787354         
       pvag=       0.05             nfactor=   0.571097         
       cdsc=0.000860723 f/m^2         cdscb=          0 f/V/m^2 
      cdscd=          0 f/V/m^2         cit=          0 f/m^2   
     alpha0=          0 m/V           beta0=         30 V       
        dlc=1.73552e-09 meter           dwc=7.18696e-08 meter   
        clc=      1e-07 meter           cle=        0.6         
       cgso=   1.96e-10 f/m            cgdo=   1.96e-10 f/m     
       cgbo=          0 f/m            cgsl=          0 f/m     
       cgdl=          0 f/m          ckappa=        0.6         
         cf=8.75406e-11 f/m            tnom=     300.15 K       
        kt1=      -0.11 V              kt1l=          0         
        kt2=      0.022                 ute=       -1.5         
        ua1=   4.31e-09 m/V             ub1=  -7.61e-18 (m/V)^2 
        uc1=   -5.6e-11 m/V^2            at=      33000 m/s     
        prt=          0         
        using Berkeley noise model       noiMod=          1         
       noia=      1e+20                noib=      50000         
       noic=   -1.4e-12                  em=    4.1e+07         
         ef=          1                  af=          1         
         kf=          0         
        using Hspice diodes            using ACM 
        acm=         0                 hdif=         0 meter    
       ldif=         0 meter             js=         0 amp/m^2  
        jsw=         0 amp/m            xti=         0          
          n=         1                   cj=0.000927696 f/m^2    
         mj=   0.35577                   pb=  0.815796 V        
       cjsw=3.18106e-10 f/m             mjsw=       0.1          
        php=  0.815796 V               pbsw (not used)           
     cjgate=3.18106e-10 f/m            cjswg (not used)           
      mjswg (not used)                 pbswg (not used)           
      lketa= -0.0129496               wketa=-0.000764319         
      pvth0= -0.0252481                 pk2=-0.00480537         
      prdsw=   -96.4503         
***************************************************************************
***        model parameters  model name:   0:pch      model type:pmos   ***
***************************************************************************

  *** general parameters ***
   deriv=   0.           

  ***  level 49  model parameters  ***

     hspver=       98.2               level=         49         
    version=        3.1            paramchk=          0         
     apwarn=          1             binUnit=          1         
     capMod=          2               xpart=          1         
     mobMod=          1              nqsMod=          0         
        elm=          5            sfvtflag=          0         
        tox=    7.6e-09 meter            xj=    1.5e-07 meter   
    binflag=          0                lmin=          0 meter   
       lmax=          0 meter          wmin=          0 meter   
       wmax=          0 meter          lref=          0 meter   
       wref=          0 meter          lint=4.30928e-09 meter   
       wint=5.96223e-08 meter         lmult=          1         
      wmult=          1                  ll=          0         
        lln=          1                  lw=          0         
        lwn=          1                 lwl=          0         
         wl=          0                 wln=          1         
         ww=          0                 wwn=          1         
        wwl=          0                 dwg=-1.5962e-08 m/V     
        dwb=1.37892e-08 m/V^1/2          a0=    1.12101         
        ags=   0.396195 V^-1             b0=6.49314e-07 meter   
         b1=4.27322e-06 meter          keta=   -0.00927 V^-1    
       voff=      -0.15 V             ngate=          0 cm^-3   
        vbx=          0 V               vbm=         -3 V       
         xt=   1.55e-07 meter          vth0=  -0.663659 V       
        nch=    1.7e+17 cm^-3          nsub=      6e+16 cm^-3   
        nlx=1.51028e-07 meter        gamma1=          0 V^-1/2  
     gamma2=          0 V^-1/2           k1=   0.456478 V^1/2   
         k2=  -0.019447                  k3=    39.3829         
        k3b=    -2.8931 V^-1             w0=2.65558e-06 meter   
       dvt0=    1.17446                dvt1=   0.763113         
       dvt2=  -0.103517 V^-1          dvt0w=          0 meter^-1
      dvt1w=    5.3e+06 meter^-1      dvt2w=     -0.032 V^-1    
       dsub=   0.243603                eta0=  0.0286461         
       etab=          0 V^-1             u0=    151.331 cm^2/V/sec
         ua=2.06121e-10 m/V              ub=1.82348e-18 (m/V)^2 
         uc=-8.97321e-12 V^-1           vsat=      99156 m/sec   
         a1=          0 v^-1             a2=          1         
      delta=       0.01 V              rdsw=    2307.25 ohm-um  
       prwg=     -0.001 V^-1           prwb=          0 V^-1/2  
         wr=          1                pclm=    4.35975         
    pdiblc1=0.000744702             pdiblc2= 0.00425607         
    pdiblcb=          0 V^-1         pscbe1=1.34762e+10 V/m     
     pscbe2=      5e-09 V/m           drout=  0.0120292         
       pvag=    3.66979             nfactor=          2         
       cdsc=0.000659308 f/m^2         cdscb=          0 f/V/m^2 
      cdscd=          0 f/V/m^2         cit=          0 f/m^2   
     alpha0=          0 m/V           beta0=         30 V       
        dlc=4.30928e-09 meter           dwc=5.96223e-08 meter   
        clc=      1e-07 meter           cle=        0.6         
       cgso=  2.307e-10 f/m            cgdo=  2.307e-10 f/m     
       cgbo=          0 f/m            cgsl=          0 f/m     
       cgdl=          0 f/m          ckappa=        0.6         
         cf=8.75406e-11 f/m            tnom=     300.15 K       
        kt1=      -0.11 V              kt1l=          0         
        kt2=      0.022                 ute=       -1.5         
        ua1=   4.31e-09 m/V             ub1=  -7.61e-18 (m/V)^2 
        uc1=   -5.6e-11 m/V^2            at=      33000 m/s     
        prt=          0         
        using Berkeley noise model       noiMod=          1         
       noia=    9.9e+18                noib=       2400         
       noic=    1.4e-12                  em=    4.1e+07         
         ef=          1                  af=          1         
         kf=          0         
        using Hspice diodes            using ACM 
        acm=         0                 hdif=         0 meter    
       ldif=         0 meter             js=         0 amp/m^2  
        jsw=         0 amp/m            xti=         0          
          n=         1                   cj=0.00142028 f/m^2    
         mj=  0.549088                   pb=      0.99 V        
       cjsw=4.77361e-10 f/m             mjsw=  0.199742          
        php=      0.99 V               pbsw (not used)           
     cjgate=4.77361e-10 f/m            cjswg (not used)           
      mjswg (not used)                 pbswg (not used)           
      lketa= 0.00602797               wketa= -0.0101398         
      pvth0= 0.00658707                 pk2= 0.00101159         
      prdsw=   -93.5582         
 ******  Star-HSPICE  --    98.2  (980711)  02:53:17  01/09/2000  solaris      
******  
*      $id$                                                                   
 ******  optimize model parameters        tnom=  25.000 temp=  25.000         
******  
*********************************
***  model name:   0:optmod  ****
*********************************

    names  values   units     names  values   units     names  values   units
    -----  ------   -----     -----  ------   -----     -----  ------   -----
   level=   3.00             relin=   1.00m           relout=   1.00m        
    grad=   1.00u            close=   1.00               cut=   2.00         
     max= 600.00k           itropt=  20.00            cendif=   1.00n        
  difsiz=   1.00m           parmin= 100.00m        
 

**warning** both nodes of source     0:vgnd            
            are connected together


*** warning *** pulse rise time is  < or = zero, reset to tstep


*** warning *** pulse fall time is  < or = zero, reset to tstep

 Opening plot unit= 15
file=./dff_2x.d.clk.q.h_3.pa4                                                 



entering lmopt 
  parm names init guess, lower, upper bounds
hold               -1.5000E-09   -1.5000E-09        0.            0.    
**warning** negative-mos conductance =     4:mp3              iter=   38
vds,vgs,vbs =      -617.          2.97            0.    
 gm,gds,gmbs,ids=      223.          1.65         -5.39          33.4    
bisec-opt.  iter =   1 xlo =  -1.50000E-09  xhi =        0.    
                         x =  -1.50000E-09 xnew =        0.    
                       err =   0.99933    

bisec-opt.  iter =   2 xlo =  -1.50000E-09  xhi =        0.    
                         x =        0.     xnew =  -7.50000E-10
                       err =  -0.11977    

bisec-opt.  iter =   3 xlo =  -1.50000E-09  xhi =  -7.50000E-10
                         x =  -7.50000E-10 xnew =  -1.12500E-09
                       err =  -0.10800    

bisec-opt.  iter =   4 xlo =  -1.12500E-09  xhi =  -7.50000E-10
                         x =  -1.12500E-09 xnew =  -9.37500E-10
                       err =   0.99859    

bisec-opt.  iter =   5 xlo =  -1.12500E-09  xhi =  -9.37500E-10
                         x =  -9.37500E-10 xnew =  -1.03125E-09
                       err =  -2.39833E-02

bisec-opt.  iter =   6 xlo =  -1.03125E-09  xhi =  -9.37500E-10
                         x =  -1.03125E-09 xnew =  -9.84375E-10
                       err =   0.99502    

bisec-opt.  iter =   7 xlo =  -9.84375E-10  xhi =  -9.37500E-10
                         x =  -9.84375E-10 xnew =  -9.60938E-10
                       err =   0.98468    

bisec-opt.  iter =   8 xlo =  -9.60938E-10  xhi =  -9.37500E-10
                         x =  -9.60938E-10 xnew =  -9.49219E-10
                       err =   0.87732    

bisec-opt.  iter =   9 xlo =  -9.49219E-10  xhi =  -9.37500E-10
                         x =  -9.49219E-10 xnew =  -9.43359E-10
                       err =   8.33250E-02

bisec-opt.  iter =  10 xlo =  -9.43359E-10  xhi =  -9.37500E-10
                         x =  -9.43359E-10 xnew =  -9.40430E-10
                       err =   2.53066E-03

bisec-opt.  iter =  11 xlo =  -9.43359E-10  xhi =  -9.40430E-10
                         x =  -9.40430E-10 xnew =  -9.41895E-10
                       err =  -1.35203E-02

bisec-opt.  iter =  12 xlo =  -9.43359E-10  xhi =  -9.41895E-10
                         x =  -9.41895E-10 xnew =  -9.42627E-10
                       err =  -6.02730E-03

bisec-opt.  iter =  13 xlo =  -9.43359E-10  xhi =  -9.42627E-10
                         x =  -9.42627E-10 xnew =  -9.42993E-10
                       err =  -2.08281E-03

bisec-opt.  iter =  14 xlo =  -9.42993E-10  xhi =  -9.42627E-10
                         x =  -9.42993E-10 xnew =  -9.42810E-10
                       err =   2.64009E-04

bisec-opt.  iter =  15 xlo =  -9.42993E-10  xhi =  -9.42810E-10
                         x =  -9.42810E-10 xnew =  -9.42902E-10
                       err =  -1.02884E-03

bisec-opt.  iter =  16 xlo =  -9.42993E-10  xhi =  -9.42902E-10
                         x =  -9.42902E-10 xnew =  -9.42947E-10
                       err =  -2.82080E-04

         optimization completed, the condition
         relin =  1.0000E-03 is satisfied

         optimization completed, the condition
         relout =  1.0000E-03 is satisfied


**** optimized parameters opthold         

.param hold          =-942.9016p      

 ******  Star-HSPICE  --    98.2  (980711)  02:53:17  01/09/2000  solaris      
******  
*      $id$                                                                   
 ******  operating point information      tnom=  25.000 temp= 100.000         
******  
***** operating point status is voltage   simulation time is     0.     
    node    =voltage       node    =voltage       node    =voltage


+ 0:clk     =   0.       0:d       =   2.9700   0:diff_1  =   2.9700 
+ 0:q       =  10.5280n  0:vclk    =   0.       0:vd      =   2.9700 
+ 0:vdd     =   2.9700   1:in1     =   8.5518n  1:in2     =   2.9700 
+ 1:nc1     = 611.7955   2:out1    =   0.       3:min     =   2.9700 
+ 3:mout    =  19.2292n  3:s       =   2.9700   3:s_n     =  10.5280n
+ 4:in1     =   8.5518n



 Opening plot unit= 15
file=./dff_2x.d.clk.q.h_3.tr8                                                 

******  
*      $id$                                                                   
 ******  transient analysis               tnom=  25.000 temp= 100.000         
******  
  hold_hl         = -7.1233E-09  targ=  8.0162E-11   trig=  7.2035E-09
  clkslew         =  3.1949E-10  targ=  7.4374E-09   trig=  7.1179E-09
  vcrit           =  2.3767E+00
  optpass         =  8.0023E-01
 Opening plot unit= 15
file=./dff_2x.d.clk.q.h_3.tr9                                                 

******  
*      $id$                                                                   
 ******  transient analysis               tnom=  25.000 temp= 100.000         
******  
  hold_hl         = -7.1193E-09  targ=  8.4167E-11   trig=  7.2035E-09
  clkslew         =  3.1949E-10  targ=  7.4374E-09   trig=  7.1179E-09
  vcrit           =  2.3767E+00
  optpass         =  8.0023E-01
  clk_q           =  7.0014E-10  targ=  7.9036E-09   trig=  7.2035E-09

         ***** job concluded
 ******  Star-HSPICE  --    98.2  (980711)  02:53:17  01/09/2000  solaris      
******  
*      $id$                                                                   
 ******  job statistics summary           tnom=  25.000 temp= 100.000         
******  

          total memory used        306 kbytes

 # nodes =    17 # elements=    35
 # diodes=     0 # bjts    =     0 # jfets   =     0 # mosfets =    22

    analysis      time      # points  tot. iter  conv.iter

    op point          2.33         1        89
    transient        40.86      2401     64258     17085 rev= 3204
    readin            0.06
    errchk            0.02
    setup             0.00
    output            0.01
          total cpu time         41.06 seconds
              job started at  02:53:17  01/09/2000
              job ended   at  02:56:24  01/09/2000


lic: Release  token(s) 
HSPICE job dff_2x.d.clk.q.h_3.sp completed.
Sun Jan  9 02:56:24 PST 2000
