Using: /cad/avanti/98.2/sol4/hspice
******  Star-HSPICE  --    98.2  (980711)  03:22:20  01/09/2000  solaris      
 Copyright (C) 1985-1997 by Avant! Corporation.                               
 Unpublished-rights reserved under US copyright laws.
 This program is protected by law and is subject to the 
 terms and conditions of the license agreement found in:
   /cad/avanti/98.2/license.txt
 Use of this program is your acceptance to be bound by this 
 license agreement. Star-HSPICE is the trademark of 
 Avant! Corporation.
 Input File: dffce_2x.clk.q.cq_0.sp                                            
lic:  
lic: FLEXlm:v5.12  USER:ryu  HOSTNAME:encina  HOSTID:80a7396e  PID:6823 
lic: Using FLEXlm license file: 
lic: /cad/avanti/98.2/license.dat 
lic: Checkout hspice;  Encryption code: 5C3400918DF1E79DC274 
lic: License/Maintenance for hspice will expire on 26-mar-2000/2000.100 
lic: 1(in_use)/1 FLOATING license(s) on SERVER wireless 
lic:   
Init: read install configuration file: /cad/avanti/98.2/meta.cfg
Init: hspice initialization file: /cad/avanti/98.2/hspice.ini
******  
*      $id$                                                                   
                                                                              
******  
* reading file:  /cad/avanti/98.2/hspice.ini
 
*      do not edit.  this file generated automagically.
*      created: sun jan  9  3:22:20 us/pacific 2000
*      user: ryu
 
*      char:   d-flop clock-q characterization
*      data:   'd'
*      clock:  'clk'
*      q:     'q'
 
*--- setup ---------------------------------------------------
.include '/people/ryu/src/autochar-1.5.5/tech/tsmc35/include/ttlh.sp'
*      $id: ttlh,v 1.4 1999/01/19 08:15:10 ryu exp ryu $
 
*      copyright (c) 1999 robert k. yu
*      email: robert@yu.org
 
*      this file is part of autochar.
 
*      autochar is free software; you can redistribute it and/or modify
*      it under the terms of the gnu general public license as published by
*      the free software foundation; either version 2, or (at your option)
*      any later version.
 
*      autochar is distributed in the hope that it will be useful,
*      but without any warranty; without even the implied warranty of
*      merchantability or fitness for a particular purpose.  see the
*      gnu general public license for more details.
 
*      you should have received a copy of the gnu general public license
*      along with autochar; see the file copying.  if not, write to the
*      free software foundation, inc., 59 temple place - suite 330,
*      boston, ma 02111-1307, usa.
 
 
*      sample hspice include file to read
*      in hspice models, library, and conditions.
 
*      ttlh :=
*          t ypical n
*          t ypical p
*          l ow vdd
*          h igh temperature
 
.lib     /people/ryu/src/autochar-1.5.5/tech/tsmc35/lib/define.sp defaults
.param
+      trise   = 200ps
+      tfall   = 200ps
+      period  = 6ns
+      pwidth  = 3ns
 
.options
+      scale   = 1.0e-6
 
.endl
.lib     /people/ryu/src/autochar-1.5.5/tech/tsmc35/lib/define.sp low_voltage
.param
+      vhigh = '3.3*0.9'
+      vlow = 0
+      vmidpoint = '(vhigh+vlow)/2'
.endl
.lib    /people/ryu/src/autochar-1.5.5/tech/tsmc35/lib/define.sp high_temp
.temp 100
.endl
.lib     /people/ryu/src/autochar-1.5.5/tech/tsmc35/lib/define.sp supplies
vvdd vdd 0 dc vhigh
vgnd gnd 0 dc 0
.global vdd gnd
.endl
 
.include /people/ryu/src/autochar-1.5.5/tech/tsmc35/lib/models.sp
*  n88y spice bsim3 version 3.1 (hspice level 49) parameters
 
* date: oct 30/98
* lot: n88y                  waf: 11
* temperature_parameters=default
.model nch nmos (                                level   = 49
+version = 3.1            tnom    = 27             tox     = 7.6e-9
+xj      = 1.5e-7         nch     = 1.7e17         vth0    = 0.4964448
+k1      = 0.5307769      k2      = 0.0199705      k3      = 0.2963637
+k3b     = 0.2012165      w0      = 2.836319e-6    nlx     = 2.894802e-7
+dvt0w   = 0              dvt1w   = 5.3e6          dvt2w   = -0.032
+dvt0    = 0.112017       dvt1    = 0.2453972      dvt2    = -0.171915
+u0      = 444.9381976    ua      = 2.921284e-10   ub      = 1.773281e-18
+uc      = 7.067896e-11   vsat    = 1.130785e5     a0      = 1.1356246
+ags     = 0.2810374      b0      = 2.844393e-7    b1      = 5e-6
+keta    = -7.8181e-3     a1      = 0              a2      = 1
+rdsw    = 925.2701982    prwg    = -1e-3          prwb    = -1e-3
+wr      = 1              wint    = 7.186965e-8    lint    = 1.735515e-9
+xl      = 0              xw      = 0              dwg     = -1.712973e-8
+dwb     = 5.851691e-9    voff    = -0.132935      nfactor = 0.5710974
+cit     = 0              cdsc    = 8.607229e-4    cdscd   = 0
+cdscb   = 0              eta0    = 2.128321e-3    etab    = 0
+dsub    = 0.0257957      pclm    = 0.6766314      pdiblc1 = 1
+pdiblc2 = 1.787424e-3    pdiblcb = 0              drout   = 0.7873539
+pscbe1  = 6.973485e9     pscbe2  = 1.46235e-7     pvag    = 0.05
+delta   = 0.01           mobmod  = 1              prt     = 0
+ute     = -1.5           kt1     = -0.11          kt1l    = 0
+kt2     = 0.022          ua1     = 4.31e-9        ub1     = -7.61e-18
+uc1     = -5.6e-11       at      = 3.3e4          wl      = 0
+wln     = 1              ww      = 0              wwn     = 1
+wwl     = 0              ll      = 0              lln     = 1
+lw      = 0              lwn     = 1              lwl     = 0
+capmod  = 2              cgdo    = 1.96e-10       cgso    = 1.96e-10
+cgbo    = 0              cj      = 9.276962e-4    pb      = 0.8157962
+mj      = 0.3557696      cjsw    = 3.181055e-10   pbsw    = 0.6869149
+mjsw    = 0.1            pvth0   = -0.0252481     prdsw   = -96.4502805
+pk2     = -4.805372e-3   wketa   = -7.643187e-4   lketa   = -0.0129496      )
*
.model pch pmos (                                level   = 49
+version = 3.1            tnom    = 27             tox     = 7.6e-9
+xj      = 1.5e-7         nch     = 1.7e17         vth0    = -0.6636594
+k1      = 0.4564781      k2      = -0.019447      k3      = 39.382919
+k3b     = -2.8930965     w0      = 2.655585e-6    nlx     = 1.51028e-7
+dvt0w   = 0              dvt1w   = 5.3e6          dvt2w   = -0.032
+dvt0    = 1.1744581      dvt1    = 0.7631128      dvt2    = -0.1035171
+u0      = 151.3305606    ua      = 2.061211e-10   ub      = 1.823477e-18
+uc      = -8.97321e-12   vsat    = 9.915604e4     a0      = 1.1210053
+ags     = 0.3961954      b0      = 6.493139e-7    b1      = 4.273215e-6
+keta    = -9.27e-3       a1      = 0              a2      = 1
+rdsw    = 2.30725e3      prwg    = -1e-3          prwb    = 0
+wr      = 1              wint    = 5.962233e-8    lint    = 4.30928e-9
+xl      = 0              xw      = 0              dwg     = -1.596201e-8
+dwb     = 1.378919e-8    voff    = -0.15          nfactor = 2
+cit     = 0              cdsc    = 6.593084e-4    cdscd   = 0
+cdscb   = 0              eta0    = 0.0286461      etab    = 0
+dsub    = 0.2436027      pclm    = 4.3597508      pdiblc1 = 7.447024e-4
+pdiblc2 = 4.256073e-3    pdiblcb = 0              drout   = 0.0120292
+pscbe1  = 1.347622e10    pscbe2  = 5e-9           pvag    = 3.669793
+delta   = 0.01           mobmod  = 1              prt     = 0
+ute     = -1.5           kt1     = -0.11          kt1l    = 0
+kt2     = 0.022          ua1     = 4.31e-9        ub1     = -7.61e-18
+uc1     = -5.6e-11       at      = 3.3e4          wl      = 0
+wln     = 1              ww      = 0              wwn     = 1
+wwl     = 0              ll      = 0              lln     = 1
+lw      = 0              lwn     = 1              lwl     = 0
+capmod  = 2              cgdo    = 2.307e-10      cgso    = 2.307e-10
+cgbo    = 0              cj      = 1.420282e-3    pb      = 0.99
+mj      = 0.5490877      cjsw    = 4.773605e-10   pbsw    = 0.99
+mjsw    = 0.1997417      pvth0   = 6.58707e-3     prdsw   = -93.5582228
+pk2     = 1.011593e-3    wketa   = -0.0101398     lketa   = 6.027967e-3     )
*
.include 'dffce_2x.sp'
*      $id: dffce_2x.sp,v 1.5 1999/01/30 21:07:43 ryu exp $
 
.subckt xgate out in gaten gatep
+      wp=4
+      wn=2
m0 in gatep out vdd pch l=0.35 w=wp
m1 in gaten out gnd nch l=0.35 w=wn
.ends
 
.subckt inv out in
+      wp=12
+      wn=6
m0 out in gnd gnd nch l=0.35 w=wn
m1 out in vdd vdd pch l=0.35 w=wp
.ends
 
.subckt dff_2x q d clk clk_n
* begin port declarations
* port output q
* port input d
* port input clk
* port input clk_n
* end port declarations
x1 min d clk_n clk xgate
x2 min mout inv wp=2 wn=1
x3 mout min inv
x4 s mout clk clk_n xgate
x5 s s_n inv wp=2 wn=1
x6 s_n s inv
x7 q s inv
cmin min gnd 5ff
cmout mout gnd 5ff
cs s gnd 5ff
cs_n s_n gnd 5ff
.ends
 
.subckt mux2 out s0 i0 i1
* begin port declarations
* port output out
* port input s0
* port input i0
* port input i1
* end port declarations
x0 n1 i0 s0 s0_n xgate wp=6 wn=3
x1 n1 i1 s0_n s0 xgate wp=6 wn=3
x2 s0_n s0 inv wp=6 wn=3
x3 out_n n1 inv wp=10 wn=5
x4 out out_n inv wp=10 wn=5
.ends
 
.subckt dffce_2x q d ce clk clk_n
* begin port declarations
* port output q
* port input d
* port input ce
* port input clk
* port input clk_n
* end port declarations
xdff q d0 clk clk_n dff_2x
xmux2 d0 ce d q mux2
.ends
 
.include /people/ryu/src/autochar-1.5.5/tech/tsmc35/lib/autochar.sp
*      $id: autochar.sp,v 1.1 1999/01/19 09:04:21 ryu exp $
 
*      copyright (c) 1999 robert k. yu
*      email: robert@yu.org
 
*      this file is part of autochar.
 
*      autochar is free software; you can redistribute it and/or modify
*      it under the terms of the gnu general public license as published by
*      the free software foundation; either version 2, or (at your option)
*      any later version.
 
*      autochar is distributed in the hope that it will be useful,
*      but without any warranty; without even the implied warranty of
*      merchantability or fitness for a particular purpose.  see the
*      gnu general public license for more details.
 
*      you should have received a copy of the gnu general public license
*      along with autochar; see the file copying.  if not, write to the
*      free software foundation, inc., 59 temple place - suite 330,
*      boston, ma 02111-1307, usa.
 
*      simple inverter
 
.subckt inverter in out
+      nl=0.6
+      nw=5.0
+      pl=0.6
+      pw=10.0
mn0 out in 0   0   nch l=nl w=nw
mp1 out in vdd vdd pch l=pl w=pw
.ends
 
 
*      simple buffer
.subckt buffer in out
+      nl=0.6
+      nw=5.0
+      pl=0.6
+      pw=10.0
+      taper=3
mn0 in1 in 0   0   nch l=nl w=nw
mp1 in1 in vdd vdd pch l=pl w=pw
mn2 out in1 0  0   nch l=nl w='taper*nw'
mp3 out in1 vdd        vdd pch l=pl w='taper*pw'
.ends
 
 
*      simple buffer with infinite drive
.subckt ebuffer in out
+      nl=0.6
+      nw=5.0
+      pl=0.6
+      pw=10.0
+      taper=3
mn0 in1 in 0   0   nch l=nl w=nw
mp1 in1 in vdd vdd pch l=pl w=pw
mn2 in2 in1 0  0   nch l=nl w='taper*nw'
mp3 in2 in1 vdd        vdd pch l=pl w='taper*pw'
* fo=3 load
xload1 in2 nc1 buffer m=3
* infinite drive
ebuf out 0 in2 0 +1
.ends
 
 
*      resistive 'buffer'
.subckt resbuffer in out
+      r=1k
rbuf in out r
.ends
 
 
*      short 'buffer'
.subckt shortbuf in out
vshort in out 0
.ends
 
 
*      infinite drive buffer with slew rate parameter using rc
*      input must be an ideal pulse.
*      to control the edge.
.subckt slewbuffer in out
+      rslew=1k
+      slew=slewrate           $ default from global param slewrate
+      start=slew_start        $ default from global param slew_start
+      end=slew_end            $ default from global param slew_end
.param cslew='abs(slew/(rslew*(log(start)-log(end))))'
rbuf in out1 rslew
cbuf out1 0 cslew
* infinite drive
ebuf out 0 out1 0 +1
.ends
 
.options
+      opts
+      list
+      nopage
+      method  = gear
+      lvltim  = 2
+      relq    = 2.0e-3
+      acct    = 1
+      post    = 1
.param setup = 'pwidth'
.param cload = '1ff'
 
*--- inputs --------------------------------------------------
vclk0 vclk0 0 pulse (
+     '0'
+      'vhigh'
+      '1ns'
+      'trise'
+      'tfall'
+      'pwidth'
+      'period')
vclk1 vclk1 0 pulse (
+     '0'
+      'vhigh'
+      '1ns'
+      'trise'
+      'tfall'
+      'pwidth'
+      'period')
vd0 vd0 0 pulse (
+     '0'
+      'vhigh'
+      '1ns+trise+2*pwidth+tfall-setup'
+      'trise'
+      'tfall'
+      '3*period'
+      '4*period')
vd1 vd1 0 pulse (
+      'vhigh'
+     '0'
+      '1ns+trise+2*pwidth+tfall-setup'
+      'trise'
+      'tfall'
+      '3*period'
+      '4*period')
 
*--- test circuit --------------------------------------------
xdbuf0 vd0 d0 ebuffer
xdbuf1 vd1 d1 ebuffer
xclkbuf0 vclk0 clk0 ebuffer
xclkbuf1 vclk1 clk1 ebuffer
xflop0
+      q0      $ q:o
+      d0      $ d:i
+      vdd     $ ce:i
+      clk0    $ clk:i
+      diff_0  $ clk_n:i
+      dffce_2x
xflop1
+      q1      $ q:o
+      d1      $ d:i
+      vdd     $ ce:i
+      clk1    $ clk:i
+      diff_1  $ clk_n:i
+      dffce_2x
e0 diff_0 0 clk0 vdd -1
e1 diff_1 0 clk1 vdd -1
 
*--- loads ---------------------------------------------------
cload0 q0 0 cload
cload1 q1 0 cload
 
*--- measure -------------------------------------------------
.option autostop
 
* measure clock->q time:
.measure tran clk_q_lh trig= v(clk0) val='0+0.5*vhigh' rise=1
+      targ=v(q0) val='0+0.5*vhigh' rise=1
.measure tran clk_q_hl trig= v(clk1) val='0+0.5*vhigh' rise=1
+      targ=v(q1) val='0+(1-0.5)*vhigh' fall=1
.measure tran risetime trig= v(q0) val='0+0.1*vhigh' rise=1
+      targ=v(q0) val='0+0.9*vhigh' rise=1
.measure tran falltime trig= v(q1) val='0+(1-0.1)*vhigh' fall=1
+      targ=v(q1) val='0+(1-0.9)*vhigh' fall=1
 
*--- transient -----------------------------------------------
.trans 5ps '2*period' start='1ns+pwidth'
 
*--- alter ---------------------------------------------------
.alter
scientific notation:
f=10**-15  p=10**-12  n=10**-9  u=10**-6  m=10**-3
k=10**3    x=10**6    g=10**9 
******  Star-HSPICE  --    98.2  (980711)  03:22:20  01/09/2000  solaris      
******  
*      $id$                                                                   
 ******  circuit name directory                                               
******  
circuit number to circuit name directory
number  circuitname                   definition        multiplier
    0 main circuit
    1 xdbuf0.                         ebuffer            1.00 
    2 xdbuf1.                         ebuffer            1.00 
    3 xclkbuf0.                       ebuffer            1.00 
    4 xclkbuf1.                       ebuffer            1.00 
    5 xflop0.                         dffce_2x           1.00 
    6 xflop1.                         dffce_2x           1.00 
    7 xdbuf0.xload1.                  buffer             3.00 
    8 xdbuf1.xload1.                  buffer             3.00 
    9 xclkbuf0.xload1.                buffer             3.00 
   10 xclkbuf1.xload1.                buffer             3.00 
   11 xflop0.xdff.                    dff_2x             1.00 
   12 xflop0.xmux2.                   mux2               1.00 
   13 xflop1.xdff.                    dff_2x             1.00 
   14 xflop1.xmux2.                   mux2               1.00 
   15 xflop0.xdff.x1.                 xgate              1.00 
   16 xflop0.xdff.x2.                 inv                1.00 
   17 xflop0.xdff.x3.                 inv                1.00 
   18 xflop0.xdff.x4.                 xgate              1.00 
   19 xflop0.xdff.x5.                 inv                1.00 
   20 xflop0.xdff.x6.                 inv                1.00 
   21 xflop0.xdff.x7.                 inv                1.00 
   22 xflop0.xmux2.x0.                xgate              1.00 
   23 xflop0.xmux2.x1.                xgate              1.00 
   24 xflop0.xmux2.x2.                inv                1.00 
   25 xflop0.xmux2.x3.                inv                1.00 
   26 xflop0.xmux2.x4.                inv                1.00 
   27 xflop1.xdff.x1.                 xgate              1.00 
   28 xflop1.xdff.x2.                 inv                1.00 
   29 xflop1.xdff.x3.                 inv                1.00 
   30 xflop1.xdff.x4.                 xgate              1.00 
   31 xflop1.xdff.x5.                 inv                1.00 
   32 xflop1.xdff.x6.                 inv                1.00 
   33 xflop1.xdff.x7.                 inv                1.00 
   34 xflop1.xmux2.x0.                xgate              1.00 
   35 xflop1.xmux2.x1.                xgate              1.00 
   36 xflop1.xmux2.x2.                inv                1.00 
   37 xflop1.xmux2.x3.                inv                1.00 
   38 xflop1.xmux2.x4.                inv                1.00 


circuit parameter definitions
 parameter          =  value 

    0:trise                                                   = 200.0000p      
    0:tfall                                                   = 200.0000p      
    0:period                                                  =   6.0000n      
    0:pwidth                                                  =   3.0000n      
    0:vhigh                                                   =   2.9700       
    0:vlow                                                    =   0.           
    0:vmidpoint                                               =   1.4850       
    0:setup                                                   =   3.0000n      
    0:cload                                                   =   1.0000f      
    0:clk_q_lh                                                =   0.           
    0:clk_q_hl                                                =   0.           
    0:risetime                                                =   0.           
    0:falltime                                                =   0.           
    1:nl                                                      = 600.0000m      
    1:nw                                                      =   5.0000       
    1:pl                                                      = 600.0000m      
    1:pw                                                      =  10.0000       
    1:taper                                                   =   3.0000       
    2:nl                                                      = 600.0000m      
    2:nw                                                      =   5.0000       
    2:pl                                                      = 600.0000m      
    2:pw                                                      =  10.0000       
    2:taper                                                   =   3.0000       
    3:nl                                                      = 600.0000m      
    3:nw                                                      =   5.0000       
    3:pl                                                      = 600.0000m      
    3:pw                                                      =  10.0000       
    3:taper                                                   =   3.0000       
    4:nl                                                      = 600.0000m      
    4:nw                                                      =   5.0000       
    4:pl                                                      = 600.0000m      
    4:pw                                                      =  10.0000       
    4:taper                                                   =   3.0000       
    7:nl                                                      = 600.0000m      
    7:nw                                                      =   5.0000       
    7:pl                                                      = 600.0000m      
    7:pw                                                      =  10.0000       
    7:taper                                                   =   3.0000       
    8:nl                                                      = 600.0000m      
    8:nw                                                      =   5.0000       
    8:pl                                                      = 600.0000m      
    8:pw                                                      =  10.0000       
    8:taper                                                   =   3.0000       
    9:nl                                                      = 600.0000m      
    9:nw                                                      =   5.0000       
    9:pl                                                      = 600.0000m      
    9:pw                                                      =  10.0000       
    9:taper                                                   =   3.0000       
   10:nl                                                      = 600.0000m      
   10:nw                                                      =   5.0000       
   10:pl                                                      = 600.0000m      
   10:pw                                                      =  10.0000       
   10:taper                                                   =   3.0000       
   15:wp                                                      =   4.0000       
   15:wn                                                      =   2.0000       
   16:wp                                                      =   2.0000       
   16:wn                                                      =   1.0000       
   17:wp                                                      =  12.0000       
   17:wn                                                      =   6.0000       
   18:wp                                                      =   4.0000       
   18:wn                                                      =   2.0000       
   19:wp                                                      =   2.0000       
   19:wn                                                      =   1.0000       
   20:wp                                                      =  12.0000       
   20:wn                                                      =   6.0000       
   21:wp                                                      =  12.0000       
   21:wn                                                      =   6.0000       
   22:wp                                                      =   6.0000       
   22:wn                                                      =   3.0000       
   23:wp                                                      =   6.0000       
   23:wn                                                      =   3.0000       
   24:wp                                                      =   6.0000       
   24:wn                                                      =   3.0000       
   25:wp                                                      =  10.0000       
   25:wn                                                      =   5.0000       
   26:wp                                                      =  10.0000       
   26:wn                                                      =   5.0000       
   27:wp                                                      =   4.0000       
   27:wn                                                      =   2.0000       
   28:wp                                                      =   2.0000       
   28:wn                                                      =   1.0000       
   29:wp                                                      =  12.0000       
   29:wn                                                      =   6.0000       
   30:wp                                                      =   4.0000       
   30:wn                                                      =   2.0000       
   31:wp                                                      =   2.0000       
   31:wn                                                      =   1.0000       
   32:wp                                                      =  12.0000       
   32:wn                                                      =   6.0000       
   33:wp                                                      =  12.0000       
   33:wn                                                      =   6.0000       
   34:wp                                                      =   6.0000       
   34:wn                                                      =   3.0000       
   35:wp                                                      =   6.0000       
   35:wn                                                      =   3.0000       
   36:wp                                                      =   6.0000       
   36:wn                                                      =   3.0000       
   37:wp                                                      =  10.0000       
   37:wn                                                      =   5.0000       
   38:wp                                                      =  10.0000       
   38:wn                                                      =   5.0000       




constants  - tnom         kt           vt           gapsi        ni
           298.1500     4.116e-21     25.6918m      1.1156     1.256e+16  
******  Star-HSPICE  --    98.2  (980711)  03:22:20  01/09/2000  solaris      
******  
*      $id$                                                                   
 ******  mos   model parameters           tnom=  25.000 temp=  25.000         
******  
***************************************************************************
***        model parameters  model name:   0:nch      model type:nmos   ***
***************************************************************************

  *** general parameters ***
   deriv=   0.           

  ***  level 49  model parameters  ***

     hspver=       98.2               level=         49         
    version=        3.1            paramchk=          0         
     apwarn=          1             binUnit=          1         
     capMod=          2               xpart=          1         
     mobMod=          1              nqsMod=          0         
        elm=          5            sfvtflag=          0         
        tox=    7.6e-09 meter            xj=    1.5e-07 meter   
    binflag=          0                lmin=          0 meter   
       lmax=          0 meter          wmin=          0 meter   
       wmax=          0 meter          lref=          0 meter   
       wref=          0 meter          lint=1.73552e-09 meter   
       wint=7.18696e-08 meter         lmult=          1         
      wmult=          1                  ll=          0         
        lln=          1                  lw=          0         
        lwn=          1                 lwl=          0         
         wl=          0                 wln=          1         
         ww=          0                 wwn=          1         
        wwl=          0                 dwg=-1.71297e-08 m/V     
        dwb=5.85169e-09 m/V^1/2          a0=    1.13562         
        ags=   0.281037 V^-1             b0=2.84439e-07 meter   
         b1=      5e-06 meter          keta= -0.0078181 V^-1    
       voff=  -0.132935 V             ngate=          0 cm^-3   
        vbx=          0 V               vbm=         -3 V       
         xt=   1.55e-07 meter          vth0=   0.496445 V       
        nch=    1.7e+17 cm^-3          nsub=      6e+16 cm^-3   
        nlx= 2.8948e-07 meter        gamma1=          0 V^-1/2  
     gamma2=          0 V^-1/2           k1=   0.530777 V^1/2   
         k2=  0.0199705                  k3=   0.296364         
        k3b=   0.201216 V^-1             w0=2.83632e-06 meter   
       dvt0=   0.112017                dvt1=   0.245397         
       dvt2=  -0.171915 V^-1          dvt0w=          0 meter^-1
      dvt1w=    5.3e+06 meter^-1      dvt2w=     -0.032 V^-1    
       dsub=  0.0257957                eta0= 0.00212832         
       etab=          0 V^-1             u0=    444.938 cm^2/V/sec
         ua=2.92128e-10 m/V              ub=1.77328e-18 (m/V)^2 
         uc= 7.0679e-11 V^-1           vsat=     113078 m/sec   
         a1=          0 v^-1             a2=          1         
      delta=       0.01 V              rdsw=     925.27 ohm-um  
       prwg=     -0.001 V^-1           prwb=     -0.001 V^-1/2  
         wr=          1                pclm=   0.676631         
    pdiblc1=          1             pdiblc2= 0.00178742         
    pdiblcb=          0 V^-1         pscbe1=6.97348e+09 V/m     
     pscbe2=1.46235e-07 V/m           drout=   0.787354         
       pvag=       0.05             nfactor=   0.571097         
       cdsc=0.000860723 f/m^2         cdscb=          0 f/V/m^2 
      cdscd=          0 f/V/m^2         cit=          0 f/m^2   
     alpha0=          0 m/V           beta0=         30 V       
        dlc=1.73552e-09 meter           dwc=7.18696e-08 meter   
        clc=      1e-07 meter           cle=        0.6         
       cgso=   1.96e-10 f/m            cgdo=   1.96e-10 f/m     
       cgbo=          0 f/m            cgsl=          0 f/m     
       cgdl=          0 f/m          ckappa=        0.6         
         cf=8.75406e-11 f/m            tnom=     300.15 K       
        kt1=      -0.11 V              kt1l=          0         
        kt2=      0.022                 ute=       -1.5         
        ua1=   4.31e-09 m/V             ub1=  -7.61e-18 (m/V)^2 
        uc1=   -5.6e-11 m/V^2            at=      33000 m/s     
        prt=          0         
        using Berkeley noise model       noiMod=          1         
       noia=      1e+20                noib=      50000         
       noic=   -1.4e-12                  em=    4.1e+07         
         ef=          1                  af=          1         
         kf=          0         
        using Hspice diodes            using ACM 
        acm=         0                 hdif=         0 meter    
       ldif=         0 meter             js=         0 amp/m^2  
        jsw=         0 amp/m            xti=         0          
          n=         1                   cj=0.000927696 f/m^2    
         mj=   0.35577                   pb=  0.815796 V        
       cjsw=3.18106e-10 f/m             mjsw=       0.1          
        php=  0.815796 V               pbsw (not used)           
     cjgate=3.18106e-10 f/m            cjswg (not used)           
      mjswg (not used)                 pbswg (not used)           
      lketa= -0.0129496               wketa=-0.000764319         
      pvth0= -0.0252481                 pk2=-0.00480537         
      prdsw=   -96.4503         
***************************************************************************
***        model parameters  model name:   0:pch      model type:pmos   ***
***************************************************************************

  *** general parameters ***
   deriv=   0.           

  ***  level 49  model parameters  ***

     hspver=       98.2               level=         49         
    version=        3.1            paramchk=          0         
     apwarn=          1             binUnit=          1         
     capMod=          2               xpart=          1         
     mobMod=          1              nqsMod=          0         
        elm=          5            sfvtflag=          0         
        tox=    7.6e-09 meter            xj=    1.5e-07 meter   
    binflag=          0                lmin=          0 meter   
       lmax=          0 meter          wmin=          0 meter   
       wmax=          0 meter          lref=          0 meter   
       wref=          0 meter          lint=4.30928e-09 meter   
       wint=5.96223e-08 meter         lmult=          1         
      wmult=          1                  ll=          0         
        lln=          1                  lw=          0         
        lwn=          1                 lwl=          0         
         wl=          0                 wln=          1         
         ww=          0                 wwn=          1         
        wwl=          0                 dwg=-1.5962e-08 m/V     
        dwb=1.37892e-08 m/V^1/2          a0=    1.12101         
        ags=   0.396195 V^-1             b0=6.49314e-07 meter   
         b1=4.27322e-06 meter          keta=   -0.00927 V^-1    
       voff=      -0.15 V             ngate=          0 cm^-3   
        vbx=          0 V               vbm=         -3 V       
         xt=   1.55e-07 meter          vth0=  -0.663659 V       
        nch=    1.7e+17 cm^-3          nsub=      6e+16 cm^-3   
        nlx=1.51028e-07 meter        gamma1=          0 V^-1/2  
     gamma2=          0 V^-1/2           k1=   0.456478 V^1/2   
         k2=  -0.019447                  k3=    39.3829         
        k3b=    -2.8931 V^-1             w0=2.65558e-06 meter   
       dvt0=    1.17446                dvt1=   0.763113         
       dvt2=  -0.103517 V^-1          dvt0w=          0 meter^-1
      dvt1w=    5.3e+06 meter^-1      dvt2w=     -0.032 V^-1    
       dsub=   0.243603                eta0=  0.0286461         
       etab=          0 V^-1             u0=    151.331 cm^2/V/sec
         ua=2.06121e-10 m/V              ub=1.82348e-18 (m/V)^2 
         uc=-8.97321e-12 V^-1           vsat=      99156 m/sec   
         a1=          0 v^-1             a2=          1         
      delta=       0.01 V              rdsw=    2307.25 ohm-um  
       prwg=     -0.001 V^-1           prwb=          0 V^-1/2  
         wr=          1                pclm=    4.35975         
    pdiblc1=0.000744702             pdiblc2= 0.00425607         
    pdiblcb=          0 V^-1         pscbe1=1.34762e+10 V/m     
     pscbe2=      5e-09 V/m           drout=  0.0120292         
       pvag=    3.66979             nfactor=          2         
       cdsc=0.000659308 f/m^2         cdscb=          0 f/V/m^2 
      cdscd=          0 f/V/m^2         cit=          0 f/m^2   
     alpha0=          0 m/V           beta0=         30 V       
        dlc=4.30928e-09 meter           dwc=5.96223e-08 meter   
        clc=      1e-07 meter           cle=        0.6         
       cgso=  2.307e-10 f/m            cgdo=  2.307e-10 f/m     
       cgbo=          0 f/m            cgsl=          0 f/m     
       cgdl=          0 f/m          ckappa=        0.6         
         cf=8.75406e-11 f/m            tnom=     300.15 K       
        kt1=      -0.11 V              kt1l=          0         
        kt2=      0.022                 ute=       -1.5         
        ua1=   4.31e-09 m/V             ub1=  -7.61e-18 (m/V)^2 
        uc1=   -5.6e-11 m/V^2            at=      33000 m/s     
        prt=          0         
        using Berkeley noise model       noiMod=          1         
       noia=    9.9e+18                noib=       2400         
       noic=    1.4e-12                  em=    4.1e+07         
         ef=          1                  af=          1         
         kf=          0         
        using Hspice diodes            using ACM 
        acm=         0                 hdif=         0 meter    
       ldif=         0 meter             js=         0 amp/m^2  
        jsw=         0 amp/m            xti=         0          
          n=         1                   cj=0.00142028 f/m^2    
         mj=  0.549088                   pb=      0.99 V        
       cjsw=4.77361e-10 f/m             mjsw=  0.199742          
        php=      0.99 V               pbsw (not used)           
     cjgate=4.77361e-10 f/m            cjswg (not used)           
      mjswg (not used)                 pbswg (not used)           
      lketa= 0.00602797               wketa= -0.0101398         
      pvth0= 0.00658707                 pk2= 0.00101159         
      prdsw=   -93.5582         

**warning** both nodes of source     0:vgnd            
            are connected together



Warning: Pd = 0 is less than W.
Model:    0:nch
W = 5e-06, L = 6e-07

******  Star-HSPICE  --    98.2  (980711)  03:22:20  01/09/2000  solaris      
******  
*      $id$                                                                   
 ******  circuit element summary          tnom=  25.000 temp=  25.000         
******  


**** capacitors
 
element name       0:cload0      0:cload1     11:cmin       11:cmout   
node1              0:q0          0:q1         11:min        11:mout    
node2              0:0           0:0           0:0           0:0       
model                                                                  
cap eff            1.0000f       1.0000f       5.0000f       5.0000f   
tc1                0.            0.            0.            0.        
tc2                0.            0.            0.            0.        
scale              1.0000        1.0000        1.0000        1.0000    
ic                 0.            0.            0.            0.        
m                  1.0000        1.0000        1.0000        1.0000    
w                  0.            0.            0.            0.        
l                  0.            0.            0.            0.        
temp              25.0000       25.0000       25.0000       25.0000    
 
element name      11:cs         11:cs_n       13:cmin       13:cmout   
node1             11:s          11:s_n        13:min        13:mout    
node2              0:0           0:0           0:0           0:0       
model                                                                  
cap eff            5.0000f       5.0000f       5.0000f       5.0000f   
tc1                0.            0.            0.            0.        
tc2                0.            0.            0.            0.        
scale              1.0000        1.0000        1.0000        1.0000    
ic                 0.            0.            0.            0.        
m                  1.0000        1.0000        1.0000        1.0000    
w                  0.            0.            0.            0.        
l                  0.            0.            0.            0.        
temp              25.0000       25.0000       25.0000       25.0000    
 
element name      13:cs         13:cs_n    
node1             13:s          13:s_n     
node2              0:0           0:0       
model                                      
cap eff            5.0000f       5.0000f   
tc1                0.            0.        
tc2                0.            0.        
scale              1.0000        1.0000    
ic                 0.            0.        
m                  1.0000        1.0000    
w                  0.            0.        
l                  0.            0.        
temp              25.0000       25.0000    


**** voltage-controlled voltage sources
     name        +             -          dimension  function  scale
   0:e0          0:diff_0      0:0              1      poly       1.    
   0:e1          0:diff_1      0:0              1      poly       1.    
   1:ebuf        0:d0          0:0              1      poly       1.    
   2:ebuf        0:d1          0:0              1      poly       1.    
   3:ebuf        0:clk0        0:0              1      poly       1.    
   4:ebuf        0:clk1        0:0              1      poly       1.    


**** independent sources

    name         node1        node2      dc volt    ac mag    ac phase    type
   0:vvdd       0:vdd        0:0           2.9700     0.         0.      dc   
   0:vclk0      0:vclk0      0:0           0.         0.         0.      pulse
            initial value     0.     
            pulsed value.     2.9700 
            delay time...     1.0000n
            risetime.....   200.0000p
            falltime.....   200.0000p
            width........     3.0000n
            period.......     6.0000n

   0:vclk1      0:vclk1      0:0           0.         0.         0.      pulse
            initial value     0.     
            pulsed value.     2.9700 
            delay time...     1.0000n
            risetime.....   200.0000p
            falltime.....   200.0000p
            width........     3.0000n
            period.......     6.0000n

   0:vd0        0:vd0        0:0           0.         0.         0.      pulse
            initial value     0.     
            pulsed value.     2.9700 
            delay time...     4.4000n
            risetime.....   200.0000p
            falltime.....   200.0000p
            width........    18.0000n
            period.......    24.0000n

   0:vd1        0:vd1        0:0           2.9700     0.         0.      pulse
            initial value     2.9700 
            pulsed value.     0.     
            delay time...     4.4000n
            risetime.....   200.0000p
            falltime.....   200.0000p
            width........    18.0000n
            period.......    24.0000n



**** mosfets
 
element name       1:mn0         1:mp1         1:mn2         1:mp3     
drain              1:in1         1:in1         1:in2         1:in2     
gate               0:vd0         0:vd0         1:in1         1:in1     
source             0:0           0:vdd         0:0           0:vdd     
bulk               0:0           0:vdd         0:0           0:vdd     
model              0:nch         0:pch         0:nch         0:pch     
w eff              4.8563u       9.8808u      14.8563u      29.8808u   
l eff            596.5290n     591.3814n     596.5290n     591.3814n   
rd eff             0.            0.            0.            0.        
rs eff             0.            0.            0.            0.        
cdsat              0.            0.            0.            0.        
cssat              0.            0.            0.            0.        
capbd              0.            0.            0.            0.        
capbs              0.            0.            0.            0.        
aic                                                                    
 
element name       2:mn0         2:mp1         2:mn2         2:mp3     
drain              2:in1         2:in1         2:in2         2:in2     
gate               0:vd1         0:vd1         2:in1         2:in1     
source             0:0           0:vdd         0:0           0:vdd     
bulk               0:0           0:vdd         0:0           0:vdd     
model              0:nch         0:pch         0:nch         0:pch     
w eff              4.8563u       9.8808u      14.8563u      29.8808u   
l eff            596.5290n     591.3814n     596.5290n     591.3814n   
rd eff             0.            0.            0.            0.        
rs eff             0.            0.            0.            0.        
cdsat              0.            0.            0.            0.        
cssat              0.            0.            0.            0.        
capbd              0.            0.            0.            0.        
capbs              0.            0.            0.            0.        
aic                                                                    
 
element name       3:mn0         3:mp1         3:mn2         3:mp3     
drain              3:in1         3:in1         3:in2         3:in2     
gate               0:vclk0       0:vclk0       3:in1         3:in1     
source             0:0           0:vdd         0:0           0:vdd     
bulk               0:0           0:vdd         0:0           0:vdd     
model              0:nch         0:pch         0:nch         0:pch     
w eff              4.8563u       9.8808u      14.8563u      29.8808u   
l eff            596.5290n     591.3814n     596.5290n     591.3814n   
rd eff             0.            0.            0.            0.        
rs eff             0.            0.            0.            0.        
cdsat              0.            0.            0.            0.        
cssat              0.            0.            0.            0.        
capbd              0.            0.            0.            0.        
capbs              0.            0.            0.            0.        
aic                                                                    
 
element name       4:mn0         4:mp1         4:mn2         4:mp3     
drain              4:in1         4:in1         4:in2         4:in2     
gate               0:vclk1       0:vclk1       4:in1         4:in1     
source             0:0           0:vdd         0:0           0:vdd     
bulk               0:0           0:vdd         0:0           0:vdd     
model              0:nch         0:pch         0:nch         0:pch     
w eff              4.8563u       9.8808u      14.8563u      29.8808u   
l eff            596.5290n     591.3814n     596.5290n     591.3814n   
rd eff             0.            0.            0.            0.        
rs eff             0.            0.            0.            0.        
cdsat              0.            0.            0.            0.        
cssat              0.            0.            0.            0.        
capbd              0.            0.            0.            0.        
capbs              0.            0.            0.            0.        
aic                                                                    
 
element name       7:mn0         7:mp1         7:mn2         7:mp3     
drain              7:in1         7:in1         1:nc1         1:nc1     
gate               1:in2         1:in2         7:in1         7:in1     
source             0:0           0:vdd         0:0           0:vdd     
bulk               0:0           0:vdd         0:0           0:vdd     
model              0:nch         0:pch         0:nch         0:pch     
w eff             14.5688u      29.6423u      44.5688u      89.6423u   
l eff            596.5290n     591.3814n     596.5290n     591.3814n   
rd eff             0.            0.            0.            0.        
rs eff             0.            0.            0.            0.        
cdsat              0.            0.            0.            0.        
cssat              0.            0.            0.            0.        
capbd              0.            0.            0.            0.        
capbs              0.            0.            0.            0.        
aic                                                                    
 
element name       8:mn0         8:mp1         8:mn2         8:mp3     
drain              8:in1         8:in1         2:nc1         2:nc1     
gate               2:in2         2:in2         8:in1         8:in1     
source             0:0           0:vdd         0:0           0:vdd     
bulk               0:0           0:vdd         0:0           0:vdd     
model              0:nch         0:pch         0:nch         0:pch     
w eff             14.5688u      29.6423u      44.5688u      89.6423u   
l eff            596.5290n     591.3814n     596.5290n     591.3814n   
rd eff             0.            0.            0.            0.        
rs eff             0.            0.            0.            0.        
cdsat              0.            0.            0.            0.        
cssat              0.            0.            0.            0.        
capbd              0.            0.            0.            0.        
capbs              0.            0.            0.            0.        
aic                                                                    
 
element name       9:mn0         9:mp1         9:mn2         9:mp3     
drain              9:in1         9:in1         3:nc1         3:nc1     
gate               3:in2         3:in2         9:in1         9:in1     
source             0:0           0:vdd         0:0           0:vdd     
bulk               0:0           0:vdd         0:0           0:vdd     
model              0:nch         0:pch         0:nch         0:pch     
w eff             14.5688u      29.6423u      44.5688u      89.6423u   
l eff            596.5290n     591.3814n     596.5290n     591.3814n   
rd eff             0.            0.            0.            0.        
rs eff             0.            0.            0.            0.        
cdsat              0.            0.            0.            0.        
cssat              0.            0.            0.            0.        
capbd              0.            0.            0.            0.        
capbs              0.            0.            0.            0.        
aic                                                                    
 
element name      10:mn0        10:mp1        10:mn2        10:mp3     
drain             10:in1        10:in1         4:nc1         4:nc1     
gate               4:in2         4:in2        10:in1        10:in1     
source             0:0           0:vdd         0:0           0:vdd     
bulk               0:0           0:vdd         0:0           0:vdd     
model              0:nch         0:pch         0:nch         0:pch     
w eff             14.5688u      29.6423u      44.5688u      89.6423u   
l eff            596.5290n     591.3814n     596.5290n     591.3814n   
rd eff             0.            0.            0.            0.        
rs eff             0.            0.            0.            0.        
cdsat              0.            0.            0.            0.        
cssat              0.            0.            0.            0.        
capbd              0.            0.            0.            0.        
capbs              0.            0.            0.            0.        
aic                                                                    
 
element name      15:m0         15:m1         16:m0         16:m1      
drain              5:d0          5:d0         11:min        11:min     
gate               0:clk0        0:diff_0     11:mout       11:mout    
source            11:min        11:min         0:0           0:vdd     
bulk               0:vdd         0:0           0:0           0:vdd     
model              0:pch         0:nch         0:nch         0:pch     
w eff              3.8808u       1.8563u     856.2607n       1.8808u   
l eff            341.3814n     346.5290n     346.5290n     341.3814n   
rd eff             0.            0.            0.            0.        
rs eff             0.            0.            0.            0.        
cdsat              0.            0.            0.            0.        
cssat              0.            0.            0.            0.        
capbd              0.            0.            0.            0.        
capbs              0.            0.            0.            0.        
aic                                                                    
 
element name      17:m0         17:m1         18:m0         18:m1      
drain             11:mout       11:mout       11:mout       11:mout    
gate              11:min        11:min         0:diff_0      0:clk0    
source             0:0           0:vdd        11:s          11:s       
bulk               0:0           0:vdd         0:vdd         0:0       
model              0:nch         0:pch         0:pch         0:nch     
w eff              5.8563u      11.8808u       3.8808u       1.8563u   
l eff            346.5290n     341.3814n     341.3814n     346.5290n   
rd eff             0.            0.            0.            0.        
rs eff             0.            0.            0.            0.        
cdsat              0.            0.            0.            0.        
cssat              0.            0.            0.            0.        
capbd              0.            0.            0.            0.        
capbs              0.            0.            0.            0.        
aic                                                                    
 
element name      19:m0         19:m1         20:m0         20:m1      
drain             11:s          11:s          11:s_n        11:s_n     
gate              11:s_n        11:s_n        11:s          11:s       
source             0:0           0:vdd         0:0           0:vdd     
bulk               0:0           0:vdd         0:0           0:vdd     
model              0:nch         0:pch         0:nch         0:pch     
w eff            856.2607n       1.8808u       5.8563u      11.8808u   
l eff            346.5290n     341.3814n     346.5290n     341.3814n   
rd eff             0.            0.            0.            0.        
rs eff             0.            0.            0.            0.        
cdsat              0.            0.            0.            0.        
cssat              0.            0.            0.            0.        
capbd              0.            0.            0.            0.        
capbs              0.            0.            0.            0.        
aic                                                                    
 
element name      21:m0         21:m1         22:m0         22:m1      
drain              0:q0          0:q0          0:d0          0:d0      
gate              11:s          11:s          12:s0_n        0:vdd     
source             0:0           0:vdd        12:n1         12:n1      
bulk               0:0           0:vdd         0:vdd         0:0       
model              0:nch         0:pch         0:pch         0:nch     
w eff              5.8563u      11.8808u       5.8808u       2.8563u   
l eff            346.5290n     341.3814n     341.3814n     346.5290n   
rd eff             0.            0.            0.            0.        
rs eff             0.            0.            0.            0.        
cdsat              0.            0.            0.            0.        
cssat              0.            0.            0.            0.        
capbd              0.            0.            0.            0.        
capbs              0.            0.            0.            0.        
aic                                                                    
 
element name      23:m0         23:m1         24:m0         24:m1      
drain              0:q0          0:q0         12:s0_n       12:s0_n    
gate               0:vdd        12:s0_n        0:vdd         0:vdd     
source            12:n1         12:n1          0:0           0:vdd     
bulk               0:vdd         0:0           0:0           0:vdd     
model              0:pch         0:nch         0:nch         0:pch     
w eff              5.8808u       2.8563u       2.8563u       5.8808u   
l eff            341.3814n     346.5290n     346.5290n     341.3814n   
rd eff             0.            0.            0.            0.        
rs eff             0.            0.            0.            0.        
cdsat              0.            0.            0.            0.        
cssat              0.            0.            0.            0.        
capbd              0.            0.            0.            0.        
capbs              0.            0.            0.            0.        
aic                                                                    
 
element name      25:m0         25:m1         26:m0         26:m1      
drain             12:out_n      12:out_n       5:d0          5:d0      
gate              12:n1         12:n1         12:out_n      12:out_n   
source             0:0           0:vdd         0:0           0:vdd     
bulk               0:0           0:vdd         0:0           0:vdd     
model              0:nch         0:pch         0:nch         0:pch     
w eff              4.8563u       9.8808u       4.8563u       9.8808u   
l eff            346.5290n     341.3814n     346.5290n     341.3814n   
rd eff             0.            0.            0.            0.        
rs eff             0.            0.            0.            0.        
cdsat              0.            0.            0.            0.        
cssat              0.            0.            0.            0.        
capbd              0.            0.            0.            0.        
capbs              0.            0.            0.            0.        
aic                                                                    
 
element name      27:m0         27:m1         28:m0         28:m1      
drain              6:d0          6:d0         13:min        13:min     
gate               0:clk1        0:diff_1     13:mout       13:mout    
source            13:min        13:min         0:0           0:vdd     
bulk               0:vdd         0:0           0:0           0:vdd     
model              0:pch         0:nch         0:nch         0:pch     
w eff              3.8808u       1.8563u     856.2607n       1.8808u   
l eff            341.3814n     346.5290n     346.5290n     341.3814n   
rd eff             0.            0.            0.            0.        
rs eff             0.            0.            0.            0.        
cdsat              0.            0.            0.            0.        
cssat              0.            0.            0.            0.        
capbd              0.            0.            0.            0.        
capbs              0.            0.            0.            0.        
aic                                                                    
 
element name      29:m0         29:m1         30:m0         30:m1      
drain             13:mout       13:mout       13:mout       13:mout    
gate              13:min        13:min         0:diff_1      0:clk1    
source             0:0           0:vdd        13:s          13:s       
bulk               0:0           0:vdd         0:vdd         0:0       
model              0:nch         0:pch         0:pch         0:nch     
w eff              5.8563u      11.8808u       3.8808u       1.8563u   
l eff            346.5290n     341.3814n     341.3814n     346.5290n   
rd eff             0.            0.            0.            0.        
rs eff             0.            0.            0.            0.        
cdsat              0.            0.            0.            0.        
cssat              0.            0.            0.            0.        
capbd              0.            0.            0.            0.        
capbs              0.            0.            0.            0.        
aic                                                                    
 
element name      31:m0         31:m1         32:m0         32:m1      
drain             13:s          13:s          13:s_n        13:s_n     
gate              13:s_n        13:s_n        13:s          13:s       
source             0:0           0:vdd         0:0           0:vdd     
bulk               0:0           0:vdd         0:0           0:vdd     
model              0:nch         0:pch         0:nch         0:pch     
w eff            856.2607n       1.8808u       5.8563u      11.8808u   
l eff            346.5290n     341.3814n     346.5290n     341.3814n   
rd eff             0.            0.            0.            0.        
rs eff             0.            0.            0.            0.        
cdsat              0.            0.            0.            0.        
cssat              0.            0.            0.            0.        
capbd              0.            0.            0.            0.        
capbs              0.            0.            0.            0.        
aic                                                                    
 
element name      33:m0         33:m1         34:m0         34:m1      
drain              0:q1          0:q1          0:d1          0:d1      
gate              13:s          13:s          14:s0_n        0:vdd     
source             0:0           0:vdd        14:n1         14:n1      
bulk               0:0           0:vdd         0:vdd         0:0       
model              0:nch         0:pch         0:pch         0:nch     
w eff              5.8563u      11.8808u       5.8808u       2.8563u   
l eff            346.5290n     341.3814n     341.3814n     346.5290n   
rd eff             0.            0.            0.            0.        
rs eff             0.            0.            0.            0.        
cdsat              0.            0.            0.            0.        
cssat              0.            0.            0.            0.        
capbd              0.            0.            0.            0.        
capbs              0.            0.            0.            0.        
aic                                                                    
 
element name      35:m0         35:m1         36:m0         36:m1      
drain              0:q1          0:q1         14:s0_n       14:s0_n    
gate               0:vdd        14:s0_n        0:vdd         0:vdd     
source            14:n1         14:n1          0:0           0:vdd     
bulk               0:vdd         0:0           0:0           0:vdd     
model              0:pch         0:nch         0:nch         0:pch     
w eff              5.8808u       2.8563u       2.8563u       5.8808u   
l eff            341.3814n     346.5290n     346.5290n     341.3814n   
rd eff             0.            0.            0.            0.        
rs eff             0.            0.            0.            0.        
cdsat              0.            0.            0.            0.        
cssat              0.            0.            0.            0.        
capbd              0.            0.            0.            0.        
capbs              0.            0.            0.            0.        
aic                                                                    
 
element name      37:m0         37:m1         38:m0         38:m1      
drain             14:out_n      14:out_n       6:d0          6:d0      
gate              14:n1         14:n1         14:out_n      14:out_n   
source             0:0           0:vdd         0:0           0:vdd     
bulk               0:0           0:vdd         0:0           0:vdd     
model              0:nch         0:pch         0:nch         0:pch     
w eff              4.8563u       9.8808u       4.8563u       9.8808u   
l eff            346.5290n     341.3814n     346.5290n     341.3814n   
rd eff             0.            0.            0.            0.        
rs eff             0.            0.            0.            0.        
cdsat              0.            0.            0.            0.        
cssat              0.            0.            0.            0.        
capbd              0.            0.            0.            0.        
capbs              0.            0.            0.            0.        
aic                                                                    


**** subcircuit calls
   name        subcircuit         external nodes


    0:xdbuf0   ebuffer         0:vd0         0:d0      
    0:xdbuf1   ebuffer         0:vd1         0:d1      
    0:xclkbuf0 ebuffer         0:vclk0       0:clk0    
    0:xclkbuf1 ebuffer         0:vclk1       0:clk1    
    0:xflop0   dffce_2x        0:q0          0:d0          0:vdd     
                              0:clk0        0:diff_0  


    0:xflop1   dffce_2x        0:q1          0:d1          0:vdd     
                              0:clk1        0:diff_1  


    1:xload1   buffer          1:in2         1:nc1     
    2:xload1   buffer          2:in2         2:nc1     
    3:xload1   buffer          3:in2         3:nc1     
    4:xload1   buffer          4:in2         4:nc1     
    5:xdff     dff_2x          0:q0          5:d0          0:clk0    
                              0:diff_0  


    5:xmux2    mux2            5:d0          0:vdd         0:d0      
                              0:q0      


    6:xdff     dff_2x          0:q1          6:d0          0:clk1    
                              0:diff_1  


    6:xmux2    mux2            6:d0          0:vdd         0:d1      
                              0:q1      


   11:x1       xgate          11:min         5:d0          0:diff_0  
                              0:clk0    


   11:x2       inv            11:min        11:mout    
   11:x3       inv            11:mout       11:min     
   11:x4       xgate          11:s          11:mout        0:clk0    
                              0:diff_0  


   11:x5       inv            11:s          11:s_n     
   11:x6       inv            11:s_n        11:s       
   11:x7       inv             0:q0         11:s       
   12:x0       xgate          12:n1          0:d0          0:vdd     
                             12:s0_n    


   12:x1       xgate          12:n1          0:q0         12:s0_n    
                              0:vdd     


   12:x2       inv            12:s0_n        0:vdd     
   12:x3       inv            12:out_n      12:n1      
   12:x4       inv             5:d0         12:out_n   
   13:x1       xgate          13:min         6:d0          0:diff_1  
                              0:clk1    


   13:x2       inv            13:min        13:mout    
   13:x3       inv            13:mout       13:min     
   13:x4       xgate          13:s          13:mout        0:clk1    
                              0:diff_1  


   13:x5       inv            13:s          13:s_n     
   13:x6       inv            13:s_n        13:s       
   13:x7       inv             0:q1         13:s       
   14:x0       xgate          14:n1          0:d1          0:vdd     
                             14:s0_n    


   14:x1       xgate          14:n1          0:q1         14:s0_n    
                              0:vdd     


   14:x2       inv            14:s0_n        0:vdd     
   14:x3       inv            14:out_n      14:n1      
   14:x4       inv             6:d0         14:out_n   
******  Star-HSPICE  --    98.2  (980711)  03:22:20  01/09/2000  solaris      
******  
*      $id$                                                                   
 ******  option summary                                                       
******  

general information options-
  acct= 1        aspec= 0        spice= 0           co= 78
cptime=  10.00x epsmin= 1.0e-28 expmax=  80.00    genk= 1
ingold= 0       itrprt= 0         klim=  10.00m limtim=      2
  list= 1         node= 0        nomod= 0       nopage= 1
 notop= 0       numdgt= 4          nxx= 0         opts= 1
  plim= 0         post= 1        scale=   1.00u  scalm=   1.00 
  tnom=  25.00  badchr= 0        acout=   1.00  lennam= 8
nowarn= 0       autost= 1      measout= 1      measdgt= 4
noelck= 0       unwrap= 0        h9007= 0      icsweep= 1
parhie=global   bkpsiz=   5000

diagno= 0      warnlim=     1  pathnum=     0   optlst= 0
limpts=  2001  timeres=   1.00p resmin=  10.00u vfloor= 500.00n
 expli=   0.     bytol=  50.00u slopetol= 500.00m


mosfet default options -
 defad=   0.     defas=   0.      defl= 100.00u defnrd=   0.   
defnrs=   0.     defpd=   0.     defps=   0.      defw= 100.00u
    wl= 0        k2lim= 0

diode level 3 default option -
diorscal= 0

dc solution controls -
  absh=   0.      absi=   1.00n absmos=   1.00u absvdc=  50.00u
 dccap= 0        dcfor=      0  dchold=      1  dcstep=   0.   
    di= 100.00      dv=   1.00k   gmax= 100.00    gmin=   1.00p
gmindc=   1.00p gshunt=   0.    cshunt=   0.     cshdc=   1.00p
 gramp= 0     converge= 0         itl1=    200    itl2=     50
newtol= 0        nopiv= 0        pivot=10      kcltest= 0
pivref= 100.00x pivrel= 100.00u pivtol=   1.00f   relh=  50.00m
  reli=  10.00m relmos=  50.00m relvdc=   1.00m rmaxdc= 100.00 
maxamp=   0.      dcon= 0          off= 0       captab= 0


  search paths for subcircuit references 
 path 1 = 
 path 2 =/cad/avanti/98.2/parts/ad 
 path 3 =/cad/avanti/98.2/parts/behave 
 path 4 =/cad/avanti/98.2/parts/bjt 
 path 5 =/cad/avanti/98.2/parts/burr_brn 
 path 6 =/cad/avanti/98.2/parts/comlinear 
 path 7 =/cad/avanti/98.2/parts/dio 
 path 8 =/cad/avanti/98.2/parts/fet 
 path 9 =/cad/avanti/98.2/parts/lin_tech 
 path10 =/cad/avanti/98.2/parts/pci 
 path11 =/cad/avanti/98.2/parts/signet 
 path12 =/cad/avanti/98.2/parts/ti 
 path13 =/cad/avanti/98.2/parts/tline 
 path14 =/cad/avanti/98.2/parts/xilinx 
 path15 =/cad/avanti/98.2/parts 

transient analysis controls -
  absv=  50.00u   relv=   1.00m
absvar= 500.00m chgtol=   1.00f  cvtol= 200.00m   dcap= 2
delmax= 240.00p     fs= 250.00m     ft= 250.00m   imax=      8
  imin=      3    itl5=      0  lvltim=   2         mu= 500.00m
maxord= 2       method=gear       relq=   2.00m relvar= 300.00m
  rmin=   1.00n   rmax=   2.00   trtol=   7.00  bypass=   0.   
  fast= 0       interp= 0         dvtr=   1.00k   dvdt= 3
accurate= 0      mbypass=   1.00 
 Opening plot unit= 15
file=./dffce_2x.clk.q.cq_0.pa0                                                

******  Star-HSPICE  --    98.2  (980711)  03:22:20  01/09/2000  solaris      
******  
*      $id$                                                                   
 ******  temperature-adjusted values      tnom=  25.000 temp= 100.000         
******  

constants  - temp         kt           vt           gapsi        ni
            373.1500     5.152e-21     32.1547m      1.0940     1.934e+18 

*** capacitors
   name        eff val


*** e elements
   name          scaleff val



*** mosfet element parameters
name           rd eff   rs eff   cdsat    cssat     vto      beta


   1:mn0         0.       0.       0.       0.     487.73m    1.60m
   1:mp1         0.       0.       0.       0.    -662.53m    1.37m
   1:mn2         0.       0.       0.       0.     493.60m    4.90m
   1:mp3         0.       0.       0.       0.    -663.29m    4.14m
   2:mn0         0.       0.       0.       0.     487.73m    1.60m
   2:mp1         0.       0.       0.       0.    -662.53m    1.37m
   2:mn2         0.       0.       0.       0.     493.60m    4.90m
   2:mp3         0.       0.       0.       0.    -663.29m    4.14m
   3:mn0         0.       0.       0.       0.     487.73m    1.60m
   3:mp1         0.       0.       0.       0.    -662.53m    1.37m
   3:mn2         0.       0.       0.       0.     493.60m    4.90m
   3:mp3         0.       0.       0.       0.    -663.29m    4.14m
   4:mn0         0.       0.       0.       0.     487.73m    1.60m
   4:mp1         0.       0.       0.       0.    -662.53m    1.37m
   4:mn2         0.       0.       0.       0.     493.60m    4.90m
   4:mp3         0.       0.       0.       0.    -663.29m    4.14m
   7:mn0         0.       0.       0.       0.     487.73m    4.80m
   7:mp1         0.       0.       0.       0.    -662.53m    4.11m
   7:mn2         0.       0.       0.       0.     493.60m   14.69m
   7:mp3         0.       0.       0.       0.    -663.29m   12.42m
   8:mn0         0.       0.       0.       0.     487.73m    4.80m
   8:mp1         0.       0.       0.       0.    -662.53m    4.11m
   8:mn2         0.       0.       0.       0.     493.60m   14.69m
   8:mp3         0.       0.       0.       0.    -663.29m   12.42m
   9:mn0         0.       0.       0.       0.     487.73m    4.80m
   9:mp1         0.       0.       0.       0.    -662.53m    4.11m
   9:mn2         0.       0.       0.       0.     493.60m   14.69m
   9:mp3         0.       0.       0.       0.    -663.29m   12.42m
  10:mn0         0.       0.       0.       0.     487.73m    4.80m
  10:mp1         0.       0.       0.       0.    -662.53m    4.11m
  10:mn2         0.       0.       0.       0.     493.60m   14.69m
  10:mp3         0.       0.       0.       0.    -663.29m   12.42m
  15:m0          0.       0.       0.       0.    -658.69m  931.54u
  15:m1          0.       0.       0.       0.     457.19m    1.05m
  16:m0          0.       0.       0.       0.     411.35m  485.96u
  16:m1          0.       0.       0.       0.    -653.40m  451.46u
  17:m0          0.       0.       0.       0.     484.00m    3.32m
  17:m1          0.       0.       0.       0.    -662.04m    2.85m
  18:m0          0.       0.       0.       0.    -658.69m  931.54u
  18:m1          0.       0.       0.       0.     457.19m    1.05m
  19:m0          0.       0.       0.       0.     411.35m  485.96u
  19:m1          0.       0.       0.       0.    -653.40m  451.46u
  20:m0          0.       0.       0.       0.     484.00m    3.32m
  20:m1          0.       0.       0.       0.    -662.04m    2.85m
  21:m0          0.       0.       0.       0.     484.00m    3.32m
  21:m1          0.       0.       0.       0.    -662.04m    2.85m
  22:m0          0.       0.       0.       0.    -660.38m    1.41m
  22:m1          0.       0.       0.       0.     470.94m    1.62m
  23:m0          0.       0.       0.       0.    -660.38m    1.41m
  23:m1          0.       0.       0.       0.     470.94m    1.62m
  24:m0          0.       0.       0.       0.     470.94m    1.62m
  24:m1          0.       0.       0.       0.    -660.38m    1.41m
  25:m0          0.       0.       0.       0.     481.44m    2.76m
  25:m1          0.       0.       0.       0.    -661.71m    2.37m
  26:m0          0.       0.       0.       0.     481.44m    2.76m
  26:m1          0.       0.       0.       0.    -661.71m    2.37m
  27:m0          0.       0.       0.       0.    -658.69m  931.54u
  27:m1          0.       0.       0.       0.     457.19m    1.05m
  28:m0          0.       0.       0.       0.     411.35m  485.96u
  28:m1          0.       0.       0.       0.    -653.40m  451.46u
  29:m0          0.       0.       0.       0.     484.00m    3.32m
  29:m1          0.       0.       0.       0.    -662.04m    2.85m
  30:m0          0.       0.       0.       0.    -658.69m  931.54u
  30:m1          0.       0.       0.       0.     457.19m    1.05m
  31:m0          0.       0.       0.       0.     411.35m  485.96u
  31:m1          0.       0.       0.       0.    -653.40m  451.46u
  32:m0          0.       0.       0.       0.     484.00m    3.32m
  32:m1          0.       0.       0.       0.    -662.04m    2.85m
  33:m0          0.       0.       0.       0.     484.00m    3.32m
  33:m1          0.       0.       0.       0.    -662.04m    2.85m
  34:m0          0.       0.       0.       0.    -660.38m    1.41m
  34:m1          0.       0.       0.       0.     470.94m    1.62m
  35:m0          0.       0.       0.       0.    -660.38m    1.41m
  35:m1          0.       0.       0.       0.     470.94m    1.62m
  36:m0          0.       0.       0.       0.     470.94m    1.62m
  36:m1          0.       0.       0.       0.    -660.38m    1.41m
  37:m0          0.       0.       0.       0.     481.44m    2.76m
  37:m1          0.       0.       0.       0.    -661.71m    2.37m
  38:m0          0.       0.       0.       0.     481.44m    2.76m
  38:m1          0.       0.       0.       0.    -661.71m    2.37m

**diagnostic** dc convergence failure, 
resetting dcon option to 1 and retrying


**diagnostic** dc convergence failure, 
resetting dcon option to 2 and retrying.

no convergence with standard algorithm,  trying damped pseudo-transient

**warning** negative-mos conductance =    15:m1               iter=    2
vds,vgs,vbs =     -0.500          1.13          6.08    
 gm,gds,gmbs,ids=     1.625E-04     7.810E-05    -1.145E-05     1.640E-04
 *** initial damped pseudo transient completed. ***
 *** final try started ***

**warning** This was a difficult operating point.
            You can speed up your simulation by specifying:
            .OPTION CONVERGE=1 GMINDC=   1.0000E-12

******  Star-HSPICE  --    98.2  (980711)  03:22:20  01/09/2000  solaris      
******  
*      $id$                                                                   
 ******  operating point information      tnom=  25.000 temp= 100.000         
******  
***** operating point status is voltage   simulation time is     0.     
    node    =voltage       node    =voltage       node    =voltage


+ 0:clk0    =   6.7588n  0:clk1    =   6.7588n  0:d0      =   6.7588n
+ 0:d1      =   2.9700   0:diff_0  =   2.9700   0:diff_1  =   2.9700 
+ 0:q0      =  11.7562n  0:q1      =   2.9700   0:vclk0   =   0.     
+ 0:vclk1   =   0.       0:vd0     =   0.       0:vd1     =   2.9700 
+ 0:vdd     =   2.9700   1:in1     =   2.9700   1:in2     =   6.7588n
+ 1:nc1     =   6.7595n  2:in1     =   8.5461n  2:in2     =   2.9700 
+ 2:nc1     =   2.9700   3:in1     =   2.9700   3:in2     =   6.7588n
+ 3:nc1     =   6.7595n  4:in1     =   2.9700   4:in2     =   6.7588n
+ 4:nc1     =   6.7595n  5:d0      =  13.7064n  6:d0      =   2.9700 
+ 7:in1     =   2.9700   8:in1     =   8.5427n  9:in1     =   2.9700 
+10:in1     =   2.9700  11:min     =  17.6036n 11:mout    =   2.9700 
+11:s       =   2.9700  11:s_n     =  10.5016n 12:n1      =  11.7781n
+12:out_n   =   2.9700  12:s0_n    =  11.3342n 13:min     =   2.9700 
+13:mout    =  11.7734n 13:s       =  24.9359n 13:s_n     =   2.9700 
+14:n1      =   2.9700  14:out_n   =  10.6000n 14:s0_n    =  11.3342n



 Opening plot unit= 15
file=./dffce_2x.clk.q.cq_0.tr0                                                


*warning** measure results may be incorrect
      since initial start time is non-zero.

*warning** measure results may be incorrect
      since initial start time is non-zero.

*warning** measure results may be incorrect
      since initial start time is non-zero.

*warning** measure results may be incorrect
      since initial start time is non-zero.
******  
*      $id$                                                                   
 ******  transient analysis               tnom=  25.000 temp= 100.000         
******  
  clk_q_lh        =  3.8028E-10  targ=  7.8669E-09   trig=  7.4866E-09
  clk_q_hl        =  4.6995E-10  targ=  7.9565E-09   trig=  7.4866E-09
  risetime        =  1.7251E-10  targ=  7.9489E-09   trig=  7.7763E-09
  falltime        =  2.0750E-10  targ=  8.0313E-09   trig=  7.8238E-09

         ***** job concluded
******  Star-HSPICE  --    98.2  (980711)  03:22:20  01/09/2000  solaris      
******  
*      $id$                                                                   
 ******  job statistics summary           tnom=  25.000 temp= 100.000         
******  

          total memory used        471 kbytes

 # nodes =    46 # elements=   101
 # diodes=     0 # bjts    =     0 # jfets   =     0 # mosfets =    80

    analysis      time      # points  tot. iter  conv.iter

    op point          1.17         1       630
    transient         4.64      1601      1809       869 rev=   30
    readin            0.25
    errchk            0.05
    setup             0.00
    output            0.00
          total cpu time          6.14 seconds
              job started at  03:22:20  01/09/2000
              job ended   at  03:22:27  01/09/2000


******  Star-HSPICE  --    98.2  (980711)  03:22:20  01/09/2000  solaris      
******  
                                                                              
 ******    alter processing listing       tnom=  25.000 temp= 100.000         
******  
.param cload = '100ff'
 
.alter
$ alter processing continues $
scientific notation:
f=10**-15  p=10**-12  n=10**-9  u=10**-6  m=10**-3
k=10**3    x=10**6    g=10**9 
******  Star-HSPICE  --    98.2  (980711)  03:22:20  01/09/2000  solaris      
******  
*      $id$                                                                   
 ******  circuit name directory                                               
******  
circuit number to circuit name directory
number  circuitname                   definition        multiplier
    0 main circuit
    1 xdbuf0.                         ebuffer            1.00 
    2 xdbuf1.                         ebuffer            1.00 
    3 xclkbuf0.                       ebuffer            1.00 
    4 xclkbuf1.                       ebuffer            1.00 
    5 xflop0.                         dffce_2x           1.00 
    6 xflop1.                         dffce_2x           1.00 
    7 xdbuf0.xload1.                  buffer             3.00 
    8 xdbuf1.xload1.                  buffer             3.00 
    9 xclkbuf0.xload1.                buffer             3.00 
   10 xclkbuf1.xload1.                buffer             3.00 
   11 xflop0.xdff.                    dff_2x             1.00 
   12 xflop0.xmux2.                   mux2               1.00 
   13 xflop1.xdff.                    dff_2x             1.00 
   14 xflop1.xmux2.                   mux2               1.00 
   15 xflop0.xdff.x1.                 xgate              1.00 
[...]
w eff            856.2607n       1.8808u       5.8563u      11.8808u   
l eff            346.5290n     341.3814n     346.5290n     341.3814n   
rd eff             0.            0.            0.            0.        
rs eff             0.            0.            0.            0.        
cdsat              0.            0.            0.            0.        
cssat              0.            0.            0.            0.        
capbd              0.            0.            0.            0.        
capbs              0.            0.            0.            0.        
aic                                                                    
 
element name      33:m0         33:m1         34:m0         34:m1      
drain              0:q1          0:q1          0:d1          0:d1      
gate              13:s          13:s          14:s0_n        0:vdd     
source             0:0           0:vdd        14:n1         14:n1      
bulk               0:0           0:vdd         0:vdd         0:0       
model              0:nch         0:pch         0:pch         0:nch     
w eff              5.8563u      11.8808u       5.8808u       2.8563u   
l eff            346.5290n     341.3814n     341.3814n     346.5290n   
rd eff             0.            0.            0.            0.        
rs eff             0.            0.            0.            0.        
cdsat              0.            0.            0.            0.        
cssat              0.            0.            0.            0.        
capbd              0.            0.            0.            0.        
capbs              0.            0.            0.            0.        
aic                                                                    
 
element name      35:m0         35:m1         36:m0         36:m1      
drain              0:q1          0:q1         14:s0_n       14:s0_n    
gate               0:vdd        14:s0_n        0:vdd         0:vdd     
source            14:n1         14:n1          0:0           0:vdd     
bulk               0:vdd         0:0           0:0           0:vdd     
model              0:pch         0:nch         0:nch         0:pch     
w eff              5.8808u       2.8563u       2.8563u       5.8808u   
l eff            341.3814n     346.5290n     346.5290n     341.3814n   
rd eff             0.            0.            0.            0.        
rs eff             0.            0.            0.            0.        
cdsat              0.            0.            0.            0.        
cssat              0.            0.            0.            0.        
capbd              0.            0.            0.            0.        
capbs              0.            0.            0.            0.        
aic                                                                    
 
element name      37:m0         37:m1         38:m0         38:m1      
drain             14:out_n      14:out_n       6:d0          6:d0      
gate              14:n1         14:n1         14:out_n      14:out_n   
source             0:0           0:vdd         0:0           0:vdd     
bulk               0:0           0:vdd         0:0           0:vdd     
model              0:nch         0:pch         0:nch         0:pch     
w eff              4.8563u       9.8808u       4.8563u       9.8808u   
l eff            346.5290n     341.3814n     346.5290n     341.3814n   
rd eff             0.            0.            0.            0.        
rs eff             0.            0.            0.            0.        
cdsat              0.            0.            0.            0.        
cssat              0.            0.            0.            0.        
capbd              0.            0.            0.            0.        
capbs              0.            0.            0.            0.        
aic                                                                    


**** subcircuit calls
   name        subcircuit         external nodes


    0:xdbuf0   ebuffer         0:vd0         0:d0      
    0:xdbuf1   ebuffer         0:vd1         0:d1      
    0:xclkbuf0 ebuffer         0:vclk0       0:clk0    
    0:xclkbuf1 ebuffer         0:vclk1       0:clk1    
    0:xflop0   dffce_2x        0:q0          0:d0          0:vdd     
                              0:clk0        0:diff_0  


    0:xflop1   dffce_2x        0:q1          0:d1          0:vdd     
                              0:clk1        0:diff_1  


    1:xload1   buffer          1:in2         1:nc1     
    2:xload1   buffer          2:in2         2:nc1     
    3:xload1   buffer          3:in2         3:nc1     
    4:xload1   buffer          4:in2         4:nc1     
    5:xdff     dff_2x          0:q0          5:d0          0:clk0    
                              0:diff_0  


    5:xmux2    mux2            5:d0          0:vdd         0:d0      
                              0:q0      


    6:xdff     dff_2x          0:q1          6:d0          0:clk1    
                              0:diff_1  


    6:xmux2    mux2            6:d0          0:vdd         0:d1      
                              0:q1      


   11:x1       xgate          11:min         5:d0          0:diff_0  
                              0:clk0    


   11:x2       inv            11:min        11:mout    
   11:x3       inv            11:mout       11:min     
   11:x4       xgate          11:s          11:mout        0:clk0    
                              0:diff_0  


   11:x5       inv            11:s          11:s_n     
   11:x6       inv            11:s_n        11:s       
   11:x7       inv             0:q0         11:s       
   12:x0       xgate          12:n1          0:d0          0:vdd     
                             12:s0_n    


   12:x1       xgate          12:n1          0:q0         12:s0_n    
                              0:vdd     


   12:x2       inv            12:s0_n        0:vdd     
   12:x3       inv            12:out_n      12:n1      
   12:x4       inv             5:d0         12:out_n   
   13:x1       xgate          13:min         6:d0          0:diff_1  
                              0:clk1    


   13:x2       inv            13:min        13:mout    
   13:x3       inv            13:mout       13:min     
   13:x4       xgate          13:s          13:mout        0:clk1    
                              0:diff_1  


   13:x5       inv            13:s          13:s_n     
   13:x6       inv            13:s_n        13:s       
   13:x7       inv             0:q1         13:s       
   14:x0       xgate          14:n1          0:d1          0:vdd     
                             14:s0_n    


   14:x1       xgate          14:n1          0:q1         14:s0_n    
                              0:vdd     


   14:x2       inv            14:s0_n        0:vdd     
   14:x3       inv            14:out_n      14:n1      
   14:x4       inv             6:d0         14:out_n   
******  Star-HSPICE  --    98.2  (980711)  03:22:20  01/09/2000  solaris      
******  
*      $id$                                                                   
 ******  option summary                                                       
******  

general information options-
  acct= 1        aspec= 0        spice= 0           co= 78
cptime=  10.00x epsmin= 1.0e-28 expmax=  80.00    genk= 1
ingold= 0       itrprt= 0         klim=  10.00m limtim=      2
  list= 1         node= 0        nomod= 0       nopage= 1
 notop= 0       numdgt= 4          nxx= 0         opts= 1
  plim= 0         post= 1        scale=   1.00u  scalm=   1.00 
  tnom=  25.00  badchr= 0        acout=   1.00  lennam= 8
nowarn= 0       autost= 1      measout= 1      measdgt= 4
noelck= 0       unwrap= 0        h9007= 0      icsweep= 1
parhie=global   bkpsiz=   5000

diagno= 0      warnlim=     1  pathnum=     0   optlst= 0
limpts=  2001  timeres=   1.00p resmin=  10.00u vfloor= 500.00n
 expli=   0.     bytol=  50.00u slopetol= 500.00m


mosfet default options -
 defad=   0.     defas=   0.      defl= 100.00u defnrd=   0.   
defnrs=   0.     defpd=   0.     defps=   0.      defw= 100.00u
    wl= 0        k2lim= 0

diode level 3 default option -
diorscal= 0

dc solution controls -
  absh=   0.      absi=   1.00n absmos=   1.00u absvdc=  50.00u
 dccap= 0        dcfor=      0  dchold=      1  dcstep=   0.   
    di= 100.00      dv=   1.00k   gmax= 100.00    gmin=   1.00p
gmindc=   1.00p gshunt=   0.    cshunt=   0.     cshdc=   1.00p
 gramp= 0     converge= 0         itl1=    200    itl2=     50
newtol= 0        nopiv= 0        pivot=10      kcltest= 0
pivref= 100.00x pivrel= 100.00u pivtol=   1.00f   relh=  50.00m
  reli=  10.00m relmos=  50.00m relvdc=   1.00m rmaxdc= 100.00 
maxamp=   0.      dcon= 0          off= 0       captab= 0


  search paths for subcircuit references 
 path 1 = 
 path 2 =/cad/avanti/98.2/parts/ad 
 path 3 =/cad/avanti/98.2/parts/behave 
 path 4 =/cad/avanti/98.2/parts/bjt 
 path 5 =/cad/avanti/98.2/parts/burr_brn 
 path 6 =/cad/avanti/98.2/parts/comlinear 
 path 7 =/cad/avanti/98.2/parts/dio 
 path 8 =/cad/avanti/98.2/parts/fet 
 path 9 =/cad/avanti/98.2/parts/lin_tech 
 path10 =/cad/avanti/98.2/parts/pci 
 path11 =/cad/avanti/98.2/parts/signet 
 path12 =/cad/avanti/98.2/parts/ti 
 path13 =/cad/avanti/98.2/parts/tline 
 path14 =/cad/avanti/98.2/parts/xilinx 
 path15 =/cad/avanti/98.2/parts 

transient analysis controls -
  absv=  50.00u   relv=   1.00m
absvar= 500.00m chgtol=   1.00f  cvtol= 200.00m   dcap= 2
delmax= 240.00p     fs= 250.00m     ft= 250.00m   imax=      8
  imin=      3    itl5=      0  lvltim=   2         mu= 500.00m
maxord= 2       method=gear       relq=   2.00m relvar= 300.00m
  rmin=   1.00n   rmax=   2.00   trtol=   7.00  bypass=   0.   
  fast= 0       interp= 0         dvtr=   1.00k   dvdt= 3
accurate= 0      mbypass=   1.00 
 Opening plot unit= 15
file=./dffce_2x.clk.q.cq_0.pa2                                                

******  Star-HSPICE  --    98.2  (980711)  03:22:20  01/09/2000  solaris      
******  
*      $id$                                                                   
 ******  temperature-adjusted values      tnom=  25.000 temp= 100.000         
******  

constants  - temp         kt           vt           gapsi        ni
            373.1500     5.152e-21     32.1547m      1.0940     1.934e+18 

*** capacitors
   name        eff val


*** e elements
   name          scaleff val



*** mosfet element parameters
name           rd eff   rs eff   cdsat    cssat     vto      beta


   1:mn0         0.       0.       0.       0.     487.73m    1.60m
   1:mp1         0.       0.       0.       0.    -662.53m    1.37m
   1:mn2         0.       0.       0.       0.     493.60m    4.90m
   1:mp3         0.       0.       0.       0.    -663.29m    4.14m
   2:mn0         0.       0.       0.       0.     487.73m    1.60m
   2:mp1         0.       0.       0.       0.    -662.53m    1.37m
   2:mn2         0.       0.       0.       0.     493.60m    4.90m
   2:mp3         0.       0.       0.       0.    -663.29m    4.14m
   3:mn0         0.       0.       0.       0.     487.73m    1.60m
   3:mp1         0.       0.       0.       0.    -662.53m    1.37m
   3:mn2         0.       0.       0.       0.     493.60m    4.90m
   3:mp3         0.       0.       0.       0.    -663.29m    4.14m
   4:mn0         0.       0.       0.       0.     487.73m    1.60m
   4:mp1         0.       0.       0.       0.    -662.53m    1.37m
   4:mn2         0.       0.       0.       0.     493.60m    4.90m
   4:mp3         0.       0.       0.       0.    -663.29m    4.14m
   7:mn0         0.       0.       0.       0.     487.73m    4.80m
   7:mp1         0.       0.       0.       0.    -662.53m    4.11m
   7:mn2         0.       0.       0.       0.     493.60m   14.69m
   7:mp3         0.       0.       0.       0.    -663.29m   12.42m
   8:mn0         0.       0.       0.       0.     487.73m    4.80m
   8:mp1         0.       0.       0.       0.    -662.53m    4.11m
   8:mn2         0.       0.       0.       0.     493.60m   14.69m
   8:mp3         0.       0.       0.       0.    -663.29m   12.42m
   9:mn0         0.       0.       0.       0.     487.73m    4.80m
   9:mp1         0.       0.       0.       0.    -662.53m    4.11m
   9:mn2         0.       0.       0.       0.     493.60m   14.69m
   9:mp3         0.       0.       0.       0.    -663.29m   12.42m
  10:mn0         0.       0.       0.       0.     487.73m    4.80m
  10:mp1         0.       0.       0.       0.    -662.53m    4.11m
  10:mn2         0.       0.       0.       0.     493.60m   14.69m
  10:mp3         0.       0.       0.       0.    -663.29m   12.42m
  15:m0          0.       0.       0.       0.    -658.69m  931.54u
  15:m1          0.       0.       0.       0.     457.19m    1.05m
  16:m0          0.       0.       0.       0.     411.35m  485.96u
  16:m1          0.       0.       0.       0.    -653.40m  451.46u
  17:m0          0.       0.       0.       0.     484.00m    3.32m
  17:m1          0.       0.       0.       0.    -662.04m    2.85m
  18:m0          0.       0.       0.       0.    -658.69m  931.54u
  18:m1          0.       0.       0.       0.     457.19m    1.05m
  19:m0          0.       0.       0.       0.     411.35m  485.96u
  19:m1          0.       0.       0.       0.    -653.40m  451.46u
  20:m0          0.       0.       0.       0.     484.00m    3.32m
  20:m1          0.       0.       0.       0.    -662.04m    2.85m
  21:m0          0.       0.       0.       0.     484.00m    3.32m
  21:m1          0.       0.       0.       0.    -662.04m    2.85m
  22:m0          0.       0.       0.       0.    -660.38m    1.41m
  22:m1          0.       0.       0.       0.     470.94m    1.62m
  23:m0          0.       0.       0.       0.    -660.38m    1.41m
  23:m1          0.       0.       0.       0.     470.94m    1.62m
  24:m0          0.       0.       0.       0.     470.94m    1.62m
  24:m1          0.       0.       0.       0.    -660.38m    1.41m
  25:m0          0.       0.       0.       0.     481.44m    2.76m
  25:m1          0.       0.       0.       0.    -661.71m    2.37m
  26:m0          0.       0.       0.       0.     481.44m    2.76m
  26:m1          0.       0.       0.       0.    -661.71m    2.37m
  27:m0          0.       0.       0.       0.    -658.69m  931.54u
  27:m1          0.       0.       0.       0.     457.19m    1.05m
  28:m0          0.       0.       0.       0.     411.35m  485.96u
  28:m1          0.       0.       0.       0.    -653.40m  451.46u
  29:m0          0.       0.       0.       0.     484.00m    3.32m
  29:m1          0.       0.       0.       0.    -662.04m    2.85m
  30:m0          0.       0.       0.       0.    -658.69m  931.54u
  30:m1          0.       0.       0.       0.     457.19m    1.05m
  31:m0          0.       0.       0.       0.     411.35m  485.96u
  31:m1          0.       0.       0.       0.    -653.40m  451.46u
  32:m0          0.       0.       0.       0.     484.00m    3.32m
  32:m1          0.       0.       0.       0.    -662.04m    2.85m
  33:m0          0.       0.       0.       0.     484.00m    3.32m
  33:m1          0.       0.       0.       0.    -662.04m    2.85m
  34:m0          0.       0.       0.       0.    -660.38m    1.41m
  34:m1          0.       0.       0.       0.     470.94m    1.62m
  35:m0          0.       0.       0.       0.    -660.38m    1.41m
  35:m1          0.       0.       0.       0.     470.94m    1.62m
  36:m0          0.       0.       0.       0.     470.94m    1.62m
  36:m1          0.       0.       0.       0.    -660.38m    1.41m
  37:m0          0.       0.       0.       0.     481.44m    2.76m
  37:m1          0.       0.       0.       0.    -661.71m    2.37m
  38:m0          0.       0.       0.       0.     481.44m    2.76m
  38:m1          0.       0.       0.       0.    -661.71m    2.37m

**diagnostic** dc convergence failure, 
resetting dcon option to 1 and retrying


**diagnostic** dc convergence failure, 
resetting dcon option to 2 and retrying.

no convergence with standard algorithm,  trying damped pseudo-transient

**warning** negative-mos conductance =    15:m1               iter=    2
vds,vgs,vbs =     -0.500          1.13          6.08    
 gm,gds,gmbs,ids=     1.625E-04     7.810E-05    -1.145E-05     1.640E-04
 *** initial damped pseudo transient completed. ***
 *** final try started ***

**warning** This was a difficult operating point.
            You can speed up your simulation by specifying:
            .OPTION CONVERGE=1 GMINDC=   1.0000E-12

******  Star-HSPICE  --    98.2  (980711)  03:22:20  01/09/2000  solaris      
******  
*      $id$                                                                   
 ******  operating point information      tnom=  25.000 temp= 100.000         
******  
***** operating point status is voltage   simulation time is     0.     
    node    =voltage       node    =voltage       node    =voltage


+ 0:clk0    =   6.7588n  0:clk1    =   6.7588n  0:d0      =   6.7588n
+ 0:d1      =   2.9700   0:diff_0  =   2.9700   0:diff_1  =   2.9700 
+ 0:q0      =  11.7562n  0:q1      =   2.9700   0:vclk0   =   0.     
+ 0:vclk1   =   0.       0:vd0     =   0.       0:vd1     =   2.9700 
+ 0:vdd     =   2.9700   1:in1     =   2.9700   1:in2     =   6.7588n
+ 1:nc1     =   6.7595n  2:in1     =   8.5461n  2:in2     =   2.9700 
+ 2:nc1     =   2.9700   3:in1     =   2.9700   3:in2     =   6.7588n
+ 3:nc1     =   6.7595n  4:in1     =   2.9700   4:in2     =   6.7588n
+ 4:nc1     =   6.7595n  5:d0      =  13.7064n  6:d0      =   2.9700 
+ 7:in1     =   2.9700   8:in1     =   8.5427n  9:in1     =   2.9700 
+10:in1     =   2.9700  11:min     =  17.6036n 11:mout    =   2.9700 
+11:s       =   2.9700  11:s_n     =  10.5016n 12:n1      =  11.7781n
+12:out_n   =   2.9700  12:s0_n    =  11.3342n 13:min     =   2.9700 
+13:mout    =  11.7734n 13:s       =  24.9359n 13:s_n     =   2.9700 
+14:n1      =   2.9700  14:out_n   =  10.6000n 14:s0_n    =  11.3342n



 Opening plot unit= 15
file=./dffce_2x.clk.q.cq_0.tr2                                                


*warning** measure results may be incorrect
      since initial start time is non-zero.

*warning** measure results may be incorrect
      since initial start time is non-zero.

*warning** measure results may be incorrect
      since initial start time is non-zero.

*warning** measure results may be incorrect
      since initial start time is non-zero.
******  
*      $id$                                                                   
 ******  transient analysis               tnom=  25.000 temp= 100.000         
******  
  clk_q_lh        =  6.9693E-10  targ=  8.1835E-09   trig=  7.4866E-09
  clk_q_hl        =  7.8387E-10  targ=  8.2705E-09   trig=  7.4866E-09
  risetime        =  6.5044E-10  targ=  8.5734E-09   trig=  7.9230E-09
  falltime        =  5.6092E-10  targ=  8.5666E-09   trig=  8.0057E-09

         ***** job concluded
******  Star-HSPICE  --    98.2  (980711)  03:22:20  01/09/2000  solaris      
******  
*      $id$                                                                   
 ******  job statistics summary           tnom=  25.000 temp= 100.000         
******  

          total memory used        471 kbytes

 # nodes =    46 # elements=   101
 # diodes=     0 # bjts    =     0 # jfets   =     0 # mosfets =    80

    analysis      time      # points  tot. iter  conv.iter

    op point          1.16         1       630
    transient         4.93      1601      1915       923 rev=   30
    readin            0.06
    errchk            0.05
    setup             0.00
    output            0.00
          total cpu time          6.22 seconds
              job started at  03:22:20  01/09/2000
              job ended   at  03:22:39  01/09/2000


lic: Release  token(s) 
HSPICE job dffce_2x.clk.q.cq_0.sp completed.
Sun Jan  9 03:22:40 PST 2000
